CM
CM
CM
CE
SY BASE=7.3

SY W0 = 0.005

SY L0=10.3

GW	2	20	0.1	0	0	0.71*L0/2	0	-0.71*L0/2	W0/2
GX	1	100
GW	1	1	-0.1	0	0	0.1	0	0	W0/2

GM	0	0	0	0	0	0	0	BASE

GE -1
GN 2 0 0 0 11 0.01
EX	0	1	1	0	1.
FR	0	5	0	0	14.2	1.0
EN
