CM
CM
CM
CE
SY BASE=5.3

SY W0 = 0.005
SY L0=1.002917
SY L1=0.982506
SY L2=1.009808
SY Z1=1.399923
SY Z2=2.85721

GW	0	9	-L0/2	0	0	L0/2	0	0	W0/2
GW	1	9	-L1/2	0	Z1	L1/2	0	Z1	W0/2
GW	2	9	-L2/2	0	Z2	L2/2	0	Z2	W0/2

GM	0	0	0	0	0	0	0	BASE

GE -1
GN 2 0 0 0 11 0.01
EX	0	1	5	0	1.
FR	0	5	0	0	144.2	1.0
EN
