CM
CM
CM
CE
SY BASE=7.3
SY RefY=-0.33015
SY DirY=0.128783
SY Lref=0.304209
SY WD=0.005
SY LDriv=0.315435
SY lDir=0.302593

GW	1	9	-LDriv/2	0.	0	LDriv/2	0.0	0	WD/2
GW	2	9	-Lref/2	RefY	0	Lref/2	RefY	0	WD/2
GW	3	9	-LDir/2	DirY	0	LDir/2	DirY	0	WD/2
GM	0	0	0	0	0	0	0	BASE
GE -1
GN 2 0 0 0 11 0.01
EX	0	1	5	0	1.
FR	0	5	0	0	433.2	1.0
EN
