CM
CM
CM
CM forw: 86, 89 ; back: 86, 269
CE
SY BASE=7.3
SY H=1.109153
SY W0=0.1
SY W1=0.274036
SY WD1 = 0.001

GW	1	1	-w0/2	0	0	w0/2	0	0	WD1/2
GW	2	5	-w0/2	0	0	-w1/2	0	h	WD1/2
GW	3	5	-w1/2	0	h	w1/2	0	h	WD1/2
GW	4	5	w1/2	0	h	w0/2	0	0	WD1/2

GM	0	0	0	0	0	0	0	BASE

GE -1
GN 2 0 0 0 11 0.01
EX	0	1	1	0	1.
FR,0,1,0,0,144.2
PQ -1
PT -1
