CM
CM
CM
CE
SY BASE=7.3

SY W0 = 0.005
SY L0=0.31852

GW	100	9	-L0/2	0	0	L0/2	0	0	W0/2

GM	0	0	0	0	0	0	0	BASE

GE -1
GN 2 0 0 0 11 0.01
EX	0	100	5	0	1.
FR	0	5	0	0	433.2	1.0
EN
