CM
CM
CM
CE
SY BASE=7.3
SY W2=0.270661
SY W1=0.269334
SY Y1=-0.28861
SY WD = 0.001
SY S1 = W1/2
SY S2 = W2/2


GW	2	5	-s1	0	-s1	s1	0	-s1	WD/2
GW	3	5	s2	y1	s2	s1	0	s1	WD/2
GW	4	5	s1	0	s1	-s1	0	s1	WD/2
GW	5	5	-s1	0	s1	-s1	0	-s1	WD/2

GW	12	5	-s2	Y1	-s2	s2	Y1	-s2	WD/2
GW	13	5	s2	Y1	-s2	s1	0	-s1	WD/2
GW	14	5	s2	Y1	s2	-s2	Y1	s2	WD/2
GW	15	5	-s2	Y1	s2	-s2	Y1	-s2	WD/2

GM	0	0	0	0	0	0	0	BASE

GE -1
GN 2 0 0 0 11 0.01
LD	5	0	0	0	58000000
EX	0	13	3	0	1.
FR	0	5	0	0	144.2	1.0
EN
