'  INPUTS -----------------------------------------
' 
SY FMHz=144.2			'frequency MHz
SY dH_mm=165			'Helix diameter mm
SY tHelix=2			'Number of turns
SY lH_mm=172			'Helix length mm
SY dW_mm=10			'Helix wire dia. mm
SY dC_mm=131			'Coupling loop diameter mm
SY dCW_mm=1			'Coupling loop wire dia. mm
SY hBase=9.5			'Height to z=0 m
SY clSep_mm=2			'separation of coupling loop wire centre from helix wire centre, along x
SY clAlphaZ=0.6			'position along z of coupling loop relative to helix ends (0 .. 1)
SY n=36				'Number of segments in each helix
SY n2=16			'Number of segments in coupling loop
'
'  CALCS -----------------------------------------
' 
SY pHelix = lH_mm / tHelix	' Helix pitch, mm
SY clZ = lH_mm * clAlphaZ' Coupling loop Z position, mm
SY lH = lH_mm / 1000
SY rH = dH_mm / 2000
SY rC = dC_mm / 2000
SY rW = dW_mm / 2000
SY rCW = dCW_mm / 2000
SY clSep = clSep_mm / 1000
'
'  GEOMETRY --------------------------------------
GH	10	n	lH/2	lH	rH	rH	rH	rH	rW
GH	1	n2	1e-300	1e-300	rC	rC	rC	rC	rCW	
GM	0	0	0	0	0	(rH - rC - clSep)	0	clZ/1000	1

GM	0	0	0	0	0	0	0	hbase

GW 777 24 -0.164 -0.164 8.900 -0.164 -0.164 9.884 0.0025
GW 777 24 -0.164 -0.123 8.900 -0.164 -0.123 9.884 0.0025
GW 777 24 -0.164 -0.082 8.900 -0.164 -0.082 9.884 0.0025
GW 777 24 -0.164 -0.041 8.900 -0.164 -0.041 9.884 0.0025
GW 777 24 -0.164 0.000 8.900 -0.164 0.000 9.884 0.0025
GW 777 24 -0.164 0.041 8.900 -0.164 0.041 9.884 0.0025
GW 777 24 -0.164 0.082 8.900 -0.164 0.082 9.884 0.0025
GW 777 24 -0.164 0.123 8.900 -0.164 0.123 9.884 0.0025
GW 777 24 -0.164 0.164 8.900 -0.164 0.164 9.884 0.0025
GW 777 10 -0.164 -0.205 8.900 -0.164 0.205 8.900 0.0025
GW 777 10 -0.164 -0.205 8.941 -0.164 0.205 8.941 0.0025
GW 777 10 -0.164 -0.205 8.982 -0.164 0.205 8.982 0.0025
GW 777 10 -0.164 -0.205 9.023 -0.164 0.205 9.023 0.0025
GW 777 10 -0.164 -0.205 9.064 -0.164 0.205 9.064 0.0025
GW 777 10 -0.164 -0.205 9.105 -0.164 0.205 9.105 0.0025
GW 777 10 -0.164 -0.205 9.146 -0.164 0.205 9.146 0.0025
GW 777 10 -0.164 -0.205 9.187 -0.164 0.205 9.187 0.0025
GW 777 10 -0.164 -0.205 9.228 -0.164 0.205 9.228 0.0025
GW 777 10 -0.164 -0.205 9.269 -0.164 0.205 9.269 0.0025
GW 777 10 -0.164 -0.205 9.310 -0.164 0.205 9.310 0.0025
GW 777 10 -0.164 -0.205 9.351 -0.164 0.205 9.351 0.0025
GW 777 10 -0.164 -0.205 9.392 -0.164 0.205 9.392 0.0025
GW 777 10 -0.164 -0.205 9.433 -0.164 0.205 9.433 0.0025
GW 777 10 -0.164 -0.205 9.474 -0.164 0.205 9.474 0.0025
GW 777 10 -0.164 -0.205 9.515 -0.164 0.205 9.515 0.0025
GW 777 10 -0.164 -0.205 9.556 -0.164 0.205 9.556 0.0025
GW 777 10 -0.164 -0.205 9.597 -0.164 0.205 9.597 0.0025
GW 777 10 -0.164 -0.205 9.638 -0.164 0.205 9.638 0.0025
GW 777 10 -0.164 -0.205 9.679 -0.164 0.205 9.679 0.0025
GW 777 10 -0.164 -0.205 9.720 -0.164 0.205 9.720 0.0025
GW 777 10 -0.164 -0.205 9.761 -0.164 0.205 9.761 0.0025
GW 777 10 -0.164 -0.205 9.802 -0.164 0.205 9.802 0.0025
GW 777 10 -0.164 -0.205 9.843 -0.164 0.205 9.843 0.0025
GW 777 10 -0.164 -0.205 9.884 -0.164 0.205 9.884 0.0025
GW 777 24 0.164 -0.164 8.900 0.164 -0.164 9.884 0.0025
GW 777 24 0.164 -0.123 8.900 0.164 -0.123 9.884 0.0025
GW 777 24 0.164 -0.082 8.900 0.164 -0.082 9.884 0.0025
GW 777 24 0.164 -0.041 8.900 0.164 -0.041 9.884 0.0025
GW 777 24 0.164 0.000 8.900 0.164 0.000 9.884 0.0025
GW 777 24 0.164 0.041 8.900 0.164 0.041 9.884 0.0025
GW 777 24 0.164 0.082 8.900 0.164 0.082 9.884 0.0025
GW 777 24 0.164 0.123 8.900 0.164 0.123 9.884 0.0025
GW 777 24 0.164 0.164 8.900 0.164 0.164 9.884 0.0025
GW 777 10 0.164 -0.205 8.900 0.164 0.205 8.900 0.0025
GW 777 10 0.164 -0.205 8.941 0.164 0.205 8.941 0.0025
GW 777 10 0.164 -0.205 8.982 0.164 0.205 8.982 0.0025
GW 777 10 0.164 -0.205 9.023 0.164 0.205 9.023 0.0025
GW 777 10 0.164 -0.205 9.064 0.164 0.205 9.064 0.0025
GW 777 10 0.164 -0.205 9.105 0.164 0.205 9.105 0.0025
GW 777 10 0.164 -0.205 9.146 0.164 0.205 9.146 0.0025
GW 777 10 0.164 -0.205 9.187 0.164 0.205 9.187 0.0025
GW 777 10 0.164 -0.205 9.228 0.164 0.205 9.228 0.0025
GW 777 10 0.164 -0.205 9.269 0.164 0.205 9.269 0.0025
GW 777 10 0.164 -0.205 9.310 0.164 0.205 9.310 0.0025
GW 777 10 0.164 -0.205 9.351 0.164 0.205 9.351 0.0025
GW 777 10 0.164 -0.205 9.392 0.164 0.205 9.392 0.0025
GW 777 10 0.164 -0.205 9.433 0.164 0.205 9.433 0.0025
GW 777 10 0.164 -0.205 9.474 0.164 0.205 9.474 0.0025
GW 777 10 0.164 -0.205 9.515 0.164 0.205 9.515 0.0025
GW 777 10 0.164 -0.205 9.556 0.164 0.205 9.556 0.0025
GW 777 10 0.164 -0.205 9.597 0.164 0.205 9.597 0.0025
GW 777 10 0.164 -0.205 9.638 0.164 0.205 9.638 0.0025
GW 777 10 0.164 -0.205 9.679 0.164 0.205 9.679 0.0025
GW 777 10 0.164 -0.205 9.720 0.164 0.205 9.720 0.0025
GW 777 10 0.164 -0.205 9.761 0.164 0.205 9.761 0.0025
GW 777 10 0.164 -0.205 9.802 0.164 0.205 9.802 0.0025
GW 777 10 0.164 -0.205 9.843 0.164 0.205 9.843 0.0025
GW 777 10 0.164 -0.205 9.884 0.164 0.205 9.884 0.0025
GW 777 24 -0.164 -0.205 8.900 -0.164 -0.205 9.884 0.0025
GW 777 24 -0.123 -0.205 8.900 -0.123 -0.205 9.884 0.0025
GW 777 24 -0.082 -0.205 8.900 -0.082 -0.205 9.884 0.0025
GW 777 24 -0.041 -0.205 8.900 -0.041 -0.205 9.884 0.0025
GW 777 24 0.000 -0.205 8.900 0.000 -0.205 9.884 0.0025
GW 777 24 0.041 -0.205 8.900 0.041 -0.205 9.884 0.0025
GW 777 24 0.082 -0.205 8.900 0.082 -0.205 9.884 0.0025
GW 777 24 0.123 -0.205 8.900 0.123 -0.205 9.884 0.0025
GW 777 24 0.164 -0.205 8.900 0.164 -0.205 9.884 0.0025
GW 777 8 -0.164 -0.205 8.900 0.164 -0.205 8.900 0.0025
GW 777 8 -0.164 -0.205 8.941 0.164 -0.205 8.941 0.0025
GW 777 8 -0.164 -0.205 8.982 0.164 -0.205 8.982 0.0025
GW 777 8 -0.164 -0.205 9.023 0.164 -0.205 9.023 0.0025
GW 777 8 -0.164 -0.205 9.064 0.164 -0.205 9.064 0.0025
GW 777 8 -0.164 -0.205 9.105 0.164 -0.205 9.105 0.0025
GW 777 8 -0.164 -0.205 9.146 0.164 -0.205 9.146 0.0025
GW 777 8 -0.164 -0.205 9.187 0.164 -0.205 9.187 0.0025
GW 777 8 -0.164 -0.205 9.228 0.164 -0.205 9.228 0.0025
GW 777 8 -0.164 -0.205 9.269 0.164 -0.205 9.269 0.0025
GW 777 8 -0.164 -0.205 9.310 0.164 -0.205 9.310 0.0025
GW 777 8 -0.164 -0.205 9.351 0.164 -0.205 9.351 0.0025
GW 777 8 -0.164 -0.205 9.392 0.164 -0.205 9.392 0.0025
GW 777 8 -0.164 -0.205 9.433 0.164 -0.205 9.433 0.0025
GW 777 8 -0.164 -0.205 9.474 0.164 -0.205 9.474 0.0025
GW 777 8 -0.164 -0.205 9.515 0.164 -0.205 9.515 0.0025
GW 777 8 -0.164 -0.205 9.556 0.164 -0.205 9.556 0.0025
GW 777 8 -0.164 -0.205 9.597 0.164 -0.205 9.597 0.0025
GW 777 8 -0.164 -0.205 9.638 0.164 -0.205 9.638 0.0025
GW 777 8 -0.164 -0.205 9.679 0.164 -0.205 9.679 0.0025
GW 777 8 -0.164 -0.205 9.720 0.164 -0.205 9.720 0.0025
GW 777 8 -0.164 -0.205 9.761 0.164 -0.205 9.761 0.0025
GW 777 8 -0.164 -0.205 9.802 0.164 -0.205 9.802 0.0025
GW 777 8 -0.164 -0.205 9.843 0.164 -0.205 9.843 0.0025
GW 777 8 -0.164 -0.205 9.884 0.164 -0.205 9.884 0.0025
GW 777 24 -0.164 0.205 8.900 -0.164 0.205 9.884 0.0025
GW 777 24 -0.123 0.205 8.900 -0.123 0.205 9.884 0.0025
GW 777 24 -0.082 0.205 8.900 -0.082 0.205 9.884 0.0025
GW 777 24 -0.041 0.205 8.900 -0.041 0.205 9.884 0.0025
GW 777 24 0.000 0.205 8.900 0.000 0.205 9.884 0.0025
GW 777 24 0.041 0.205 8.900 0.041 0.205 9.884 0.0025
GW 777 24 0.082 0.205 8.900 0.082 0.205 9.884 0.0025
GW 777 24 0.123 0.205 8.900 0.123 0.205 9.884 0.0025
GW 777 24 0.164 0.205 8.900 0.164 0.205 9.884 0.0025
GW 777 8 -0.164 0.205 8.900 0.164 0.205 8.900 0.0025
GW 777 8 -0.164 0.205 8.941 0.164 0.205 8.941 0.0025
GW 777 8 -0.164 0.205 8.982 0.164 0.205 8.982 0.0025
GW 777 8 -0.164 0.205 9.023 0.164 0.205 9.023 0.0025
GW 777 8 -0.164 0.205 9.064 0.164 0.205 9.064 0.0025
GW 777 8 -0.164 0.205 9.105 0.164 0.205 9.105 0.0025
GW 777 8 -0.164 0.205 9.146 0.164 0.205 9.146 0.0025
GW 777 8 -0.164 0.205 9.187 0.164 0.205 9.187 0.0025
GW 777 8 -0.164 0.205 9.228 0.164 0.205 9.228 0.0025
GW 777 8 -0.164 0.205 9.269 0.164 0.205 9.269 0.0025
GW 777 8 -0.164 0.205 9.310 0.164 0.205 9.310 0.0025
GW 777 8 -0.164 0.205 9.351 0.164 0.205 9.351 0.0025
GW 777 8 -0.164 0.205 9.392 0.164 0.205 9.392 0.0025
GW 777 8 -0.164 0.205 9.433 0.164 0.205 9.433 0.0025
GW 777 8 -0.164 0.205 9.474 0.164 0.205 9.474 0.0025
GW 777 8 -0.164 0.205 9.515 0.164 0.205 9.515 0.0025
GW 777 8 -0.164 0.205 9.556 0.164 0.205 9.556 0.0025
GW 777 8 -0.164 0.205 9.597 0.164 0.205 9.597 0.0025
GW 777 8 -0.164 0.205 9.638 0.164 0.205 9.638 0.0025
GW 777 8 -0.164 0.205 9.679 0.164 0.205 9.679 0.0025
GW 777 8 -0.164 0.205 9.720 0.164 0.205 9.720 0.0025
GW 777 8 -0.164 0.205 9.761 0.164 0.205 9.761 0.0025
GW 777 8 -0.164 0.205 9.802 0.164 0.205 9.802 0.0025
GW 777 8 -0.164 0.205 9.843 0.164 0.205 9.843 0.0025
GW 777 8 -0.164 0.205 9.884 0.164 0.205 9.884 0.0025

GE	1
LD	5	0	0	0	58000000
LD 1 777 0 0 0 0 5.3125128000000016e-14
GN 2 0 0 0 11 0.01
EK
EX	0	1	1	0	1.	0
FR	0	0	0	0	FMHz	0
EN
