CM Length X1 = 1
CM Length X2 = 1
CM Length Y = .38
CM X sections = 20
CM Y sections = 8
CM Rotate X, Y, Z = 90, 0, 0
CM Move X, Y, Z = 0, 0, 0
CE
GW   100   10      -.5      .19      .19      -.5      .19    .1425  .003877
GW   101   10      -.5      .19    .1425      -.5      .19     .095  .003877
GW   102   10      -.5      .19     .095      -.5      .19    .0475  .003877
GW   103   10      -.5      .19    .0475      -.5      .19       .0  .003877
GW   104   10      -.5      .19       .0      -.5      .19   -.0475  .003877
GW   105   10      -.5      .19   -.0475      -.5      .19    -.095  .003877
GW   106   10      -.5      .19    -.095      -.5      .19   -.1425  .003877
GW   107   10      -.5      .19   -.1425      -.5      .19     -.19  .003877
GW   108   10     -.45      .19      .19     -.45      .19    .1425  .003877
GW   109   10     -.45      .19    .1425     -.45      .19     .095  .003877
GW   110   10     -.45      .19     .095     -.45      .19    .0475  .003877
GW   111   10     -.45      .19    .0475     -.45      .19       .0  .003877
GW   112   10     -.45      .19       .0     -.45      .19   -.0475  .003877
GW   113   10     -.45      .19   -.0475     -.45      .19    -.095  .003877
GW   114   10     -.45      .19    -.095     -.45      .19   -.1425  .003877
GW   115   10     -.45      .19   -.1425     -.45      .19     -.19  .003877
GW   116   10      -.4      .19      .19      -.4      .19    .1425  .003877
GW   117   10      -.4      .19    .1425      -.4      .19     .095  .003877
GW   118   10      -.4      .19     .095      -.4      .19    .0475  .003877
GW   119   10      -.4      .19    .0475      -.4      .19       .0  .003877
GW   120   10      -.4      .19       .0      -.4      .19   -.0475  .003877
GW   121   10      -.4      .19   -.0475      -.4      .19    -.095  .003877
GW   122   10      -.4      .19    -.095      -.4      .19   -.1425  .003877
GW   123   10      -.4      .19   -.1425      -.4      .19     -.19  .003877
GW   124   10     -.35      .19      .19     -.35      .19    .1425  .003877
GW   125   10     -.35      .19    .1425     -.35      .19     .095  .003877
GW   126   10     -.35      .19     .095     -.35      .19    .0475  .003877
GW   127   10     -.35      .19    .0475     -.35      .19       .0  .003877
GW   128   10     -.35      .19       .0     -.35      .19   -.0475  .003877
GW   129   10     -.35      .19   -.0475     -.35      .19    -.095  .003877
GW   130   10     -.35      .19    -.095     -.35      .19   -.1425  .003877
GW   131   10     -.35      .19   -.1425     -.35      .19     -.19  .003877
GW   132   10      -.3      .19      .19      -.3      .19    .1425  .003877
GW   133   10      -.3      .19    .1425      -.3      .19     .095  .003877
GW   134   10      -.3      .19     .095      -.3      .19    .0475  .003877
GW   135   10      -.3      .19    .0475      -.3      .19       .0  .003877
GW   136   10      -.3      .19       .0      -.3      .19   -.0475  .003877
GW   137   10      -.3      .19   -.0475      -.3      .19    -.095  .003877
GW   138   10      -.3      .19    -.095      -.3      .19   -.1425  .003877
GW   139   10      -.3      .19   -.1425      -.3      .19     -.19  .003877
GW   140   10     -.25      .19      .19     -.25      .19    .1425  .003877
GW   141   10     -.25      .19    .1425     -.25      .19     .095  .003877
GW   142   10     -.25      .19     .095     -.25      .19    .0475  .003877
GW   143   10     -.25      .19    .0475     -.25      .19       .0  .003877
GW   144   10     -.25      .19       .0     -.25      .19   -.0475  .003877
GW   145   10     -.25      .19   -.0475     -.25      .19    -.095  .003877
GW   146   10     -.25      .19    -.095     -.25      .19   -.1425  .003877
GW   147   10     -.25      .19   -.1425     -.25      .19     -.19  .003877
GW   148   10      -.2      .19      .19      -.2      .19    .1425  .003877
GW   149   10      -.2      .19    .1425      -.2      .19     .095  .003877
GW   150   10      -.2      .19     .095      -.2      .19    .0475  .003877
GW   151   10      -.2      .19    .0475      -.2      .19       .0  .003877
GW   152   10      -.2      .19       .0      -.2      .19   -.0475  .003877
GW   153   10      -.2      .19   -.0475      -.2      .19    -.095  .003877
GW   154   10      -.2      .19    -.095      -.2      .19   -.1425  .003877
GW   155   10      -.2      .19   -.1425      -.2      .19     -.19  .003877
GW   156   10     -.15      .19      .19     -.15      .19    .1425  .003877
GW   157   10     -.15      .19    .1425     -.15      .19     .095  .003877
GW   158   10     -.15      .19     .095     -.15      .19    .0475  .003877
GW   159   10     -.15      .19    .0475     -.15      .19       .0  .003877
GW   160   10     -.15      .19       .0     -.15      .19   -.0475  .003877
GW   161   10     -.15      .19   -.0475     -.15      .19    -.095  .003877
GW   162   10     -.15      .19    -.095     -.15      .19   -.1425  .003877
GW   163   10     -.15      .19   -.1425     -.15      .19     -.19  .003877
GW   164   10      -.1      .19      .19      -.1      .19    .1425  .003877
GW   165   10      -.1      .19    .1425      -.1      .19     .095  .003877
GW   166   10      -.1      .19     .095      -.1      .19    .0475  .003877
GW   167   10      -.1      .19    .0475      -.1      .19       .0  .003877
GW   168   10      -.1      .19       .0      -.1      .19   -.0475  .003877
GW   169   10      -.1      .19   -.0475      -.1      .19    -.095  .003877
GW   170   10      -.1      .19    -.095      -.1      .19   -.1425  .003877
GW   171   10      -.1      .19   -.1425      -.1      .19     -.19  .003877
GW   172   10     -.05      .19      .19     -.05      .19    .1425  .003877
GW   173   10     -.05      .19    .1425     -.05      .19     .095  .003877
GW   174   10     -.05      .19     .095     -.05      .19    .0475  .003877
GW   175   10     -.05      .19    .0475     -.05      .19       .0  .003877
GW   176   10     -.05      .19       .0     -.05      .19   -.0475  .003877
GW   177   10     -.05      .19   -.0475     -.05      .19    -.095  .003877
GW   178   10     -.05      .19    -.095     -.05      .19   -.1425  .003877
GW   179   10     -.05      .19   -.1425     -.05      .19     -.19  .003877
GW   180   10       .0      .19      .19       .0      .19    .1425  .003877
GW   181   10       .0      .19    .1425       .0      .19     .095  .003877
GW   182   10       .0      .19     .095       .0      .19    .0475  .003877
GW   183   10       .0      .19    .0475       .0      .19       .0  .003877
GW   184   10       .0      .19       .0       .0      .19   -.0475  .003877
GW   185   10       .0      .19   -.0475       .0      .19    -.095  .003877
GW   186   10       .0      .19    -.095       .0      .19   -.1425  .003877
GW   187   10       .0      .19   -.1425       .0      .19     -.19  .003877
GW   188   10      .05      .19      .19      .05      .19    .1425  .003877
GW   189   10      .05      .19    .1425      .05      .19     .095  .003877
GW   190   10      .05      .19     .095      .05      .19    .0475  .003877
GW   191   10      .05      .19    .0475      .05      .19       .0  .003877
GW   192   10      .05      .19       .0      .05      .19   -.0475  .003877
GW   193   10      .05      .19   -.0475      .05      .19    -.095  .003877
GW   194   10      .05      .19    -.095      .05      .19   -.1425  .003877
GW   195   10      .05      .19   -.1425      .05      .19     -.19  .003877
GW   196   10       .1      .19      .19       .1      .19    .1425  .003877
GW   197   10       .1      .19    .1425       .1      .19     .095  .003877
GW   198   10       .1      .19     .095       .1      .19    .0475  .003877
GW   199   10       .1      .19    .0475       .1      .19       .0  .003877
GW   200   10       .1      .19       .0       .1      .19   -.0475  .003877
GW   201   10       .1      .19   -.0475       .1      .19    -.095  .003877
GW   202   10       .1      .19    -.095       .1      .19   -.1425  .003877
GW   203   10       .1      .19   -.1425       .1      .19     -.19  .003877
GW   204   10      .15      .19      .19      .15      .19    .1425  .003877
GW   205   10      .15      .19    .1425      .15      .19     .095  .003877
GW   206   10      .15      .19     .095      .15      .19    .0475  .003877
GW   207   10      .15      .19    .0475      .15      .19       .0  .003877
GW   208   10      .15      .19       .0      .15      .19   -.0475  .003877
GW   209   10      .15      .19   -.0475      .15      .19    -.095  .003877
GW   210   10      .15      .19    -.095      .15      .19   -.1425  .003877
GW   211   10      .15      .19   -.1425      .15      .19     -.19  .003877
GW   212   10       .2      .19      .19       .2      .19    .1425  .003877
GW   213   10       .2      .19    .1425       .2      .19     .095  .003877
GW   214   10       .2      .19     .095       .2      .19    .0475  .003877
GW   215   10       .2      .19    .0475       .2      .19       .0  .003877
GW   216   10       .2      .19       .0       .2      .19   -.0475  .003877
GW   217   10       .2      .19   -.0475       .2      .19    -.095  .003877
GW   218   10       .2      .19    -.095       .2      .19   -.1425  .003877
GW   219   10       .2      .19   -.1425       .2      .19     -.19  .003877
GW   220   10      .25      .19      .19      .25      .19    .1425  .003877
GW   221   10      .25      .19    .1425      .25      .19     .095  .003877
GW   222   10      .25      .19     .095      .25      .19    .0475  .003877
GW   223   10      .25      .19    .0475      .25      .19       .0  .003877
GW   224   10      .25      .19       .0      .25      .19   -.0475  .003877
GW   225   10      .25      .19   -.0475      .25      .19    -.095  .003877
GW   226   10      .25      .19    -.095      .25      .19   -.1425  .003877
GW   227   10      .25      .19   -.1425      .25      .19     -.19  .003877
GW   228   10       .3      .19      .19       .3      .19    .1425  .003877
GW   229   10       .3      .19    .1425       .3      .19     .095  .003877
GW   230   10       .3      .19     .095       .3      .19    .0475  .003877
GW   231   10       .3      .19    .0475       .3      .19       .0  .003877
GW   232   10       .3      .19       .0       .3      .19   -.0475  .003877
GW   233   10       .3      .19   -.0475       .3      .19    -.095  .003877
GW   234   10       .3      .19    -.095       .3      .19   -.1425  .003877
GW   235   10       .3      .19   -.1425       .3      .19     -.19  .003877
GW   236   10      .35      .19      .19      .35      .19    .1425  .003877
GW   237   10      .35      .19    .1425      .35      .19     .095  .003877
GW   238   10      .35      .19     .095      .35      .19    .0475  .003877
GW   239   10      .35      .19    .0475      .35      .19       .0  .003877
GW   240   10      .35      .19       .0      .35      .19   -.0475  .003877
GW   241   10      .35      .19   -.0475      .35      .19    -.095  .003877
GW   242   10      .35      .19    -.095      .35      .19   -.1425  .003877
GW   243   10      .35      .19   -.1425      .35      .19     -.19  .003877
GW   244   10       .4      .19      .19       .4      .19    .1425  .003877
GW   245   10       .4      .19    .1425       .4      .19     .095  .003877
GW   246   10       .4      .19     .095       .4      .19    .0475  .003877
GW   247   10       .4      .19    .0475       .4      .19       .0  .003877
GW   248   10       .4      .19       .0       .4      .19   -.0475  .003877
GW   249   10       .4      .19   -.0475       .4      .19    -.095  .003877
GW   250   10       .4      .19    -.095       .4      .19   -.1425  .003877
GW   251   10       .4      .19   -.1425       .4      .19     -.19  .003877
GW   252   10      .45      .19      .19      .45      .19    .1425  .003877
GW   253   10      .45      .19    .1425      .45      .19     .095  .003877
GW   254   10      .45      .19     .095      .45      .19    .0475  .003877
GW   255   10      .45      .19    .0475      .45      .19       .0  .003877
GW   256   10      .45      .19       .0      .45      .19   -.0475  .003877
GW   257   10      .45      .19   -.0475      .45      .19    -.095  .003877
GW   258   10      .45      .19    -.095      .45      .19   -.1425  .003877
GW   259   10      .45      .19   -.1425      .45      .19     -.19  .003877
GW   260   10       .5      .19      .19       .5      .19    .1425  .003877
GW   261   10       .5      .19    .1425       .5      .19     .095  .003877
GW   262   10       .5      .19     .095       .5      .19    .0475  .003877
GW   263   10       .5      .19    .0475       .5      .19       .0  .003877
GW   264   10       .5      .19       .0       .5      .19   -.0475  .003877
GW   265   10       .5      .19   -.0475       .5      .19    -.095  .003877
GW   266   10       .5      .19    -.095       .5      .19   -.1425  .003877
GW   267   10       .5      .19   -.1425       .5      .19     -.19  .003877
GW   268   10      -.5      .19      .19     -.45      .19      .19  .003877
GW   269   10     -.45      .19      .19      -.4      .19      .19  .003877
GW   270   10      -.4      .19      .19     -.35      .19      .19  .003877
GW   271   10     -.35      .19      .19      -.3      .19      .19  .003877
GW   272   10      -.3      .19      .19     -.25      .19      .19  .003877
GW   273   10     -.25      .19      .19      -.2      .19      .19  .003877
GW   274   10      -.2      .19      .19     -.15      .19      .19  .003877
GW   275   10     -.15      .19      .19      -.1      .19      .19  .003877
GW   276   10      -.1      .19      .19     -.05      .19      .19  .003877
GW   277   10     -.05      .19      .19       .0      .19      .19  .003877
GW   278   10       .0      .19      .19      .05      .19      .19  .003877
GW   279   10      .05      .19      .19       .1      .19      .19  .003877
GW   280   10       .1      .19      .19      .15      .19      .19  .003877
GW   281   10      .15      .19      .19       .2      .19      .19  .003877
GW   282   10       .2      .19      .19      .25      .19      .19  .003877
GW   283   10      .25      .19      .19       .3      .19      .19  .003877
GW   284   10       .3      .19      .19      .35      .19      .19  .003877
GW   285   10      .35      .19      .19       .4      .19      .19  .003877
GW   286   10       .4      .19      .19      .45      .19      .19  .003877
GW   287   10      .45      .19      .19       .5      .19      .19  .003877
GW   288   10      -.5      .19    .1425     -.45      .19    .1425  .003877
GW   289   10     -.45      .19    .1425      -.4      .19    .1425  .003877
GW   290   10      -.4      .19    .1425     -.35      .19    .1425  .003877
GW   291   10     -.35      .19    .1425      -.3      .19    .1425  .003877
GW   292   10      -.3      .19    .1425     -.25      .19    .1425  .003877
GW   293   10     -.25      .19    .1425      -.2      .19    .1425  .003877
GW   294   10      -.2      .19    .1425     -.15      .19    .1425  .003877
GW   295   10     -.15      .19    .1425      -.1      .19    .1425  .003877
GW   296   10      -.1      .19    .1425     -.05      .19    .1425  .003877
GW   297   10     -.05      .19    .1425       .0      .19    .1425  .003877
GW   298   10       .0      .19    .1425      .05      .19    .1425  .003877
GW   299   10      .05      .19    .1425       .1      .19    .1425  .003877
GW   300   10       .1      .19    .1425      .15      .19    .1425  .003877
GW   301   10      .15      .19    .1425       .2      .19    .1425  .003877
GW   302   10       .2      .19    .1425      .25      .19    .1425  .003877
GW   303   10      .25      .19    .1425       .3      .19    .1425  .003877
GW   304   10       .3      .19    .1425      .35      .19    .1425  .003877
GW   305   10      .35      .19    .1425       .4      .19    .1425  .003877
GW   306   10       .4      .19    .1425      .45      .19    .1425  .003877
GW   307   10      .45      .19    .1425       .5      .19    .1425  .003877
GW   308   10      -.5      .19     .095     -.45      .19     .095  .003877
GW   309   10     -.45      .19     .095      -.4      .19     .095  .003877
GW   310   10      -.4      .19     .095     -.35      .19     .095  .003877
GW   311   10     -.35      .19     .095      -.3      .19     .095  .003877
GW   312   10      -.3      .19     .095     -.25      .19     .095  .003877
GW   313   10     -.25      .19     .095      -.2      .19     .095  .003877
GW   314   10      -.2      .19     .095     -.15      .19     .095  .003877
GW   315   10     -.15      .19     .095      -.1      .19     .095  .003877
GW   316   10      -.1      .19     .095     -.05      .19     .095  .003877
GW   317   10     -.05      .19     .095       .0      .19     .095  .003877
GW   318   10       .0      .19     .095      .05      .19     .095  .003877
GW   319   10      .05      .19     .095       .1      .19     .095  .003877
GW   320   10       .1      .19     .095      .15      .19     .095  .003877
GW   321   10      .15      .19     .095       .2      .19     .095  .003877
GW   322   10       .2      .19     .095      .25      .19     .095  .003877
GW   323   10      .25      .19     .095       .3      .19     .095  .003877
GW   324   10       .3      .19     .095      .35      .19     .095  .003877
GW   325   10      .35      .19     .095       .4      .19     .095  .003877
GW   326   10       .4      .19     .095      .45      .19     .095  .003877
GW   327   10      .45      .19     .095       .5      .19     .095  .003877
GW   328   10      -.5      .19    .0475     -.45      .19    .0475  .003877
GW   329   10     -.45      .19    .0475      -.4      .19    .0475  .003877
GW   330   10      -.4      .19    .0475     -.35      .19    .0475  .003877
GW   331   10     -.35      .19    .0475      -.3      .19    .0475  .003877
GW   332   10      -.3      .19    .0475     -.25      .19    .0475  .003877
GW   333   10     -.25      .19    .0475      -.2      .19    .0475  .003877
GW   334   10      -.2      .19    .0475     -.15      .19    .0475  .003877
GW   335   10     -.15      .19    .0475      -.1      .19    .0475  .003877
GW   336   10      -.1      .19    .0475     -.05      .19    .0475  .003877
GW   337   10     -.05      .19    .0475       .0      .19    .0475  .003877
GW   338   10       .0      .19    .0475      .05      .19    .0475  .003877
GW   339   10      .05      .19    .0475       .1      .19    .0475  .003877
GW   340   10       .1      .19    .0475      .15      .19    .0475  .003877
GW   341   10      .15      .19    .0475       .2      .19    .0475  .003877
GW   342   10       .2      .19    .0475      .25      .19    .0475  .003877
GW   343   10      .25      .19    .0475       .3      .19    .0475  .003877
GW   344   10       .3      .19    .0475      .35      .19    .0475  .003877
GW   345   10      .35      .19    .0475       .4      .19    .0475  .003877
GW   346   10       .4      .19    .0475      .45      .19    .0475  .003877
GW   347   10      .45      .19    .0475       .5      .19    .0475  .003877
GW   348   10      -.5      .19       .0     -.45      .19       .0  .003877
GW   349   10     -.45      .19       .0      -.4      .19       .0  .003877
GW   350   10      -.4      .19       .0     -.35      .19       .0  .003877
GW   351   10     -.35      .19       .0      -.3      .19       .0  .003877
GW   352   10      -.3      .19       .0     -.25      .19       .0  .003877
GW   353   10     -.25      .19       .0      -.2      .19       .0  .003877
GW   354   10      -.2      .19       .0     -.15      .19       .0  .003877
GW   355   10     -.15      .19       .0      -.1      .19       .0  .003877
GW   356   10      -.1      .19       .0     -.05      .19       .0  .003877
GW   357   10     -.05      .19       .0       .0      .19       .0  .003877
GW   358   10       .0      .19       .0      .05      .19       .0  .003877
GW   359   10      .05      .19       .0       .1      .19       .0  .003877
GW   360   10       .1      .19       .0      .15      .19       .0  .003877
GW   361   10      .15      .19       .0       .2      .19       .0  .003877
GW   362   10       .2      .19       .0      .25      .19       .0  .003877
GW   363   10      .25      .19       .0       .3      .19       .0  .003877
GW   364   10       .3      .19       .0      .35      .19       .0  .003877
GW   365   10      .35      .19       .0       .4      .19       .0  .003877
GW   366   10       .4      .19       .0      .45      .19       .0  .003877
GW   367   10      .45      .19       .0       .5      .19       .0  .003877
GW   368   10      -.5      .19   -.0475     -.45      .19   -.0475  .003877
GW   369   10     -.45      .19   -.0475      -.4      .19   -.0475  .003877
GW   370   10      -.4      .19   -.0475     -.35      .19   -.0475  .003877
GW   371   10     -.35      .19   -.0475      -.3      .19   -.0475  .003877
GW   372   10      -.3      .19   -.0475     -.25      .19   -.0475  .003877
GW   373   10     -.25      .19   -.0475      -.2      .19   -.0475  .003877
GW   374   10      -.2      .19   -.0475     -.15      .19   -.0475  .003877
GW   375   10     -.15      .19   -.0475      -.1      .19   -.0475  .003877
GW   376   10      -.1      .19   -.0475     -.05      .19   -.0475  .003877
GW   377   10     -.05      .19   -.0475       .0      .19   -.0475  .003877
GW   378   10       .0      .19   -.0475      .05      .19   -.0475  .003877
GW   379   10      .05      .19   -.0475       .1      .19   -.0475  .003877
GW   380   10       .1      .19   -.0475      .15      .19   -.0475  .003877
GW   381   10      .15      .19   -.0475       .2      .19   -.0475  .003877
GW   382   10       .2      .19   -.0475      .25      .19   -.0475  .003877
GW   383   10      .25      .19   -.0475       .3      .19   -.0475  .003877
GW   384   10       .3      .19   -.0475      .35      .19   -.0475  .003877
GW   385   10      .35      .19   -.0475       .4      .19   -.0475  .003877
GW   386   10       .4      .19   -.0475      .45      .19   -.0475  .003877
GW   387   10      .45      .19   -.0475       .5      .19   -.0475  .003877
GW   388   10      -.5      .19    -.095     -.45      .19    -.095  .003877
GW   389   10     -.45      .19    -.095      -.4      .19    -.095  .003877
GW   390   10      -.4      .19    -.095     -.35      .19    -.095  .003877
GW   391   10     -.35      .19    -.095      -.3      .19    -.095  .003877
GW   392   10      -.3      .19    -.095     -.25      .19    -.095  .003877
GW   393   10     -.25      .19    -.095      -.2      .19    -.095  .003877
GW   394   10      -.2      .19    -.095     -.15      .19    -.095  .003877
GW   395   10     -.15      .19    -.095      -.1      .19    -.095  .003877
GW   396   10      -.1      .19    -.095     -.05      .19    -.095  .003877
GW   397   10     -.05      .19    -.095       .0      .19    -.095  .003877
GW   398   10       .0      .19    -.095      .05      .19    -.095  .003877
GW   399   10      .05      .19    -.095       .1      .19    -.095  .003877
GW   400   10       .1      .19    -.095      .15      .19    -.095  .003877
GW   401   10      .15      .19    -.095       .2      .19    -.095  .003877
GW   402   10       .2      .19    -.095      .25      .19    -.095  .003877
GW   403   10      .25      .19    -.095       .3      .19    -.095  .003877
GW   404   10       .3      .19    -.095      .35      .19    -.095  .003877
GW   405   10      .35      .19    -.095       .4      .19    -.095  .003877
GW   406   10       .4      .19    -.095      .45      .19    -.095  .003877
GW   407   10      .45      .19    -.095       .5      .19    -.095  .003877
GW   408   10      -.5      .19   -.1425     -.45      .19   -.1425  .003877
GW   409   10     -.45      .19   -.1425      -.4      .19   -.1425  .003877
GW   410   10      -.4      .19   -.1425     -.35      .19   -.1425  .003877
GW   411   10     -.35      .19   -.1425      -.3      .19   -.1425  .003877
GW   412   10      -.3      .19   -.1425     -.25      .19   -.1425  .003877
GW   413   10     -.25      .19   -.1425      -.2      .19   -.1425  .003877
GW   414   10      -.2      .19   -.1425     -.15      .19   -.1425  .003877
GW   415   10     -.15      .19   -.1425      -.1      .19   -.1425  .003877
GW   416   10      -.1      .19   -.1425     -.05      .19   -.1425  .003877
GW   417   10     -.05      .19   -.1425       .0      .19   -.1425  .003877
GW   418   10       .0      .19   -.1425      .05      .19   -.1425  .003877
GW   419   10      .05      .19   -.1425       .1      .19   -.1425  .003877
GW   420   10       .1      .19   -.1425      .15      .19   -.1425  .003877
GW   421   10      .15      .19   -.1425       .2      .19   -.1425  .003877
GW   422   10       .2      .19   -.1425      .25      .19   -.1425  .003877
GW   423   10      .25      .19   -.1425       .3      .19   -.1425  .003877
GW   424   10       .3      .19   -.1425      .35      .19   -.1425  .003877
GW   425   10      .35      .19   -.1425       .4      .19   -.1425  .003877
GW   426   10       .4      .19   -.1425      .45      .19   -.1425  .003877
GW   427   10      .45      .19   -.1425       .5      .19   -.1425  .003877
GW   428   10      -.5      .19     -.19     -.45      .19     -.19  .003877
GW   429   10     -.45      .19     -.19      -.4      .19     -.19  .003877
GW   430   10      -.4      .19     -.19     -.35      .19     -.19  .003877
GW   431   10     -.35      .19     -.19      -.3      .19     -.19  .003877
GW   432   10      -.3      .19     -.19     -.25      .19     -.19  .003877
GW   433   10     -.25      .19     -.19      -.2      .19     -.19  .003877
GW   434   10      -.2      .19     -.19     -.15      .19     -.19  .003877
GW   435   10     -.15      .19     -.19      -.1      .19     -.19  .003877
GW   436   10      -.1      .19     -.19     -.05      .19     -.19  .003877
GW   437   10     -.05      .19     -.19       .0      .19     -.19  .003877
GW   438   10       .0      .19     -.19      .05      .19     -.19  .003877
GW   439   10      .05      .19     -.19       .1      .19     -.19  .003877
GW   440   10       .1      .19     -.19      .15      .19     -.19  .003877
GW   441   10      .15      .19     -.19       .2      .19     -.19  .003877
GW   442   10       .2      .19     -.19      .25      .19     -.19  .003877
GW   443   10      .25      .19     -.19       .3      .19     -.19  .003877
GW   444   10       .3      .19     -.19      .35      .19     -.19  .003877
GW   445   10      .35      .19     -.19       .4      .19     -.19  .003877
GW   446   10       .4      .19     -.19      .45      .19     -.19  .003877
GW   447   10      .45      .19     -.19       .5      .19     -.19  .003877
GE 0
