CM Chimney
CE
GW 777 24 -0.164 -0.164 8.900 -0.164 -0.164 9.884 0.0025
GW 777 24 -0.164 -0.123 8.900 -0.164 -0.123 9.884 0.0025
GW 777 24 -0.164 -0.082 8.900 -0.164 -0.082 9.884 0.0025
GW 777 24 -0.164 -0.041 8.900 -0.164 -0.041 9.884 0.0025
GW 777 24 -0.164 0.000 8.900 -0.164 0.000 9.884 0.0025
GW 777 24 -0.164 0.041 8.900 -0.164 0.041 9.884 0.0025
GW 777 24 -0.164 0.082 8.900 -0.164 0.082 9.884 0.0025
GW 777 24 -0.164 0.123 8.900 -0.164 0.123 9.884 0.0025
GW 777 24 -0.164 0.164 8.900 -0.164 0.164 9.884 0.0025
GW 777 10 -0.164 -0.205 8.900 -0.164 0.205 8.900 0.0025
GW 777 10 -0.164 -0.205 8.941 -0.164 0.205 8.941 0.0025
GW 777 10 -0.164 -0.205 8.982 -0.164 0.205 8.982 0.0025
GW 777 10 -0.164 -0.205 9.023 -0.164 0.205 9.023 0.0025
GW 777 10 -0.164 -0.205 9.064 -0.164 0.205 9.064 0.0025
GW 777 10 -0.164 -0.205 9.105 -0.164 0.205 9.105 0.0025
GW 777 10 -0.164 -0.205 9.146 -0.164 0.205 9.146 0.0025
GW 777 10 -0.164 -0.205 9.187 -0.164 0.205 9.187 0.0025
GW 777 10 -0.164 -0.205 9.228 -0.164 0.205 9.228 0.0025
GW 777 10 -0.164 -0.205 9.269 -0.164 0.205 9.269 0.0025
GW 777 10 -0.164 -0.205 9.310 -0.164 0.205 9.310 0.0025
GW 777 10 -0.164 -0.205 9.351 -0.164 0.205 9.351 0.0025
GW 777 10 -0.164 -0.205 9.392 -0.164 0.205 9.392 0.0025
GW 777 10 -0.164 -0.205 9.433 -0.164 0.205 9.433 0.0025
GW 777 10 -0.164 -0.205 9.474 -0.164 0.205 9.474 0.0025
GW 777 10 -0.164 -0.205 9.515 -0.164 0.205 9.515 0.0025
GW 777 10 -0.164 -0.205 9.556 -0.164 0.205 9.556 0.0025
GW 777 10 -0.164 -0.205 9.597 -0.164 0.205 9.597 0.0025
GW 777 10 -0.164 -0.205 9.638 -0.164 0.205 9.638 0.0025
GW 777 10 -0.164 -0.205 9.679 -0.164 0.205 9.679 0.0025
GW 777 10 -0.164 -0.205 9.720 -0.164 0.205 9.720 0.0025
GW 777 10 -0.164 -0.205 9.761 -0.164 0.205 9.761 0.0025
GW 777 10 -0.164 -0.205 9.802 -0.164 0.205 9.802 0.0025
GW 777 10 -0.164 -0.205 9.843 -0.164 0.205 9.843 0.0025
GW 777 10 -0.164 -0.205 9.884 -0.164 0.205 9.884 0.0025
GW 777 24 0.164 -0.164 8.900 0.164 -0.164 9.884 0.0025
GW 777 24 0.164 -0.123 8.900 0.164 -0.123 9.884 0.0025
GW 777 24 0.164 -0.082 8.900 0.164 -0.082 9.884 0.0025
GW 777 24 0.164 -0.041 8.900 0.164 -0.041 9.884 0.0025
GW 777 24 0.164 0.000 8.900 0.164 0.000 9.884 0.0025
GW 777 24 0.164 0.041 8.900 0.164 0.041 9.884 0.0025
GW 777 24 0.164 0.082 8.900 0.164 0.082 9.884 0.0025
GW 777 24 0.164 0.123 8.900 0.164 0.123 9.884 0.0025
GW 777 24 0.164 0.164 8.900 0.164 0.164 9.884 0.0025
GW 777 10 0.164 -0.205 8.900 0.164 0.205 8.900 0.0025
GW 777 10 0.164 -0.205 8.941 0.164 0.205 8.941 0.0025
GW 777 10 0.164 -0.205 8.982 0.164 0.205 8.982 0.0025
GW 777 10 0.164 -0.205 9.023 0.164 0.205 9.023 0.0025
GW 777 10 0.164 -0.205 9.064 0.164 0.205 9.064 0.0025
GW 777 10 0.164 -0.205 9.105 0.164 0.205 9.105 0.0025
GW 777 10 0.164 -0.205 9.146 0.164 0.205 9.146 0.0025
GW 777 10 0.164 -0.205 9.187 0.164 0.205 9.187 0.0025
GW 777 10 0.164 -0.205 9.228 0.164 0.205 9.228 0.0025
GW 777 10 0.164 -0.205 9.269 0.164 0.205 9.269 0.0025
GW 777 10 0.164 -0.205 9.310 0.164 0.205 9.310 0.0025
GW 777 10 0.164 -0.205 9.351 0.164 0.205 9.351 0.0025
GW 777 10 0.164 -0.205 9.392 0.164 0.205 9.392 0.0025
GW 777 10 0.164 -0.205 9.433 0.164 0.205 9.433 0.0025
GW 777 10 0.164 -0.205 9.474 0.164 0.205 9.474 0.0025
GW 777 10 0.164 -0.205 9.515 0.164 0.205 9.515 0.0025
GW 777 10 0.164 -0.205 9.556 0.164 0.205 9.556 0.0025
GW 777 10 0.164 -0.205 9.597 0.164 0.205 9.597 0.0025
GW 777 10 0.164 -0.205 9.638 0.164 0.205 9.638 0.0025
GW 777 10 0.164 -0.205 9.679 0.164 0.205 9.679 0.0025
GW 777 10 0.164 -0.205 9.720 0.164 0.205 9.720 0.0025
GW 777 10 0.164 -0.205 9.761 0.164 0.205 9.761 0.0025
GW 777 10 0.164 -0.205 9.802 0.164 0.205 9.802 0.0025
GW 777 10 0.164 -0.205 9.843 0.164 0.205 9.843 0.0025
GW 777 10 0.164 -0.205 9.884 0.164 0.205 9.884 0.0025
GW 777 24 -0.164 -0.205 8.900 -0.164 -0.205 9.884 0.0025
GW 777 24 -0.123 -0.205 8.900 -0.123 -0.205 9.884 0.0025
GW 777 24 -0.082 -0.205 8.900 -0.082 -0.205 9.884 0.0025
GW 777 24 -0.041 -0.205 8.900 -0.041 -0.205 9.884 0.0025
GW 777 24 0.000 -0.205 8.900 0.000 -0.205 9.884 0.0025
GW 777 24 0.041 -0.205 8.900 0.041 -0.205 9.884 0.0025
GW 777 24 0.082 -0.205 8.900 0.082 -0.205 9.884 0.0025
GW 777 24 0.123 -0.205 8.900 0.123 -0.205 9.884 0.0025
GW 777 24 0.164 -0.205 8.900 0.164 -0.205 9.884 0.0025
GW 777 8 -0.164 -0.205 8.900 0.164 -0.205 8.900 0.0025
GW 777 8 -0.164 -0.205 8.941 0.164 -0.205 8.941 0.0025
GW 777 8 -0.164 -0.205 8.982 0.164 -0.205 8.982 0.0025
GW 777 8 -0.164 -0.205 9.023 0.164 -0.205 9.023 0.0025
GW 777 8 -0.164 -0.205 9.064 0.164 -0.205 9.064 0.0025
GW 777 8 -0.164 -0.205 9.105 0.164 -0.205 9.105 0.0025
GW 777 8 -0.164 -0.205 9.146 0.164 -0.205 9.146 0.0025
GW 777 8 -0.164 -0.205 9.187 0.164 -0.205 9.187 0.0025
GW 777 8 -0.164 -0.205 9.228 0.164 -0.205 9.228 0.0025
GW 777 8 -0.164 -0.205 9.269 0.164 -0.205 9.269 0.0025
GW 777 8 -0.164 -0.205 9.310 0.164 -0.205 9.310 0.0025
GW 777 8 -0.164 -0.205 9.351 0.164 -0.205 9.351 0.0025
GW 777 8 -0.164 -0.205 9.392 0.164 -0.205 9.392 0.0025
GW 777 8 -0.164 -0.205 9.433 0.164 -0.205 9.433 0.0025
GW 777 8 -0.164 -0.205 9.474 0.164 -0.205 9.474 0.0025
GW 777 8 -0.164 -0.205 9.515 0.164 -0.205 9.515 0.0025
GW 777 8 -0.164 -0.205 9.556 0.164 -0.205 9.556 0.0025
GW 777 8 -0.164 -0.205 9.597 0.164 -0.205 9.597 0.0025
GW 777 8 -0.164 -0.205 9.638 0.164 -0.205 9.638 0.0025
GW 777 8 -0.164 -0.205 9.679 0.164 -0.205 9.679 0.0025
GW 777 8 -0.164 -0.205 9.720 0.164 -0.205 9.720 0.0025
GW 777 8 -0.164 -0.205 9.761 0.164 -0.205 9.761 0.0025
GW 777 8 -0.164 -0.205 9.802 0.164 -0.205 9.802 0.0025
GW 777 8 -0.164 -0.205 9.843 0.164 -0.205 9.843 0.0025
GW 777 8 -0.164 -0.205 9.884 0.164 -0.205 9.884 0.0025
GW 777 24 -0.164 0.205 8.900 -0.164 0.205 9.884 0.0025
GW 777 24 -0.123 0.205 8.900 -0.123 0.205 9.884 0.0025
GW 777 24 -0.082 0.205 8.900 -0.082 0.205 9.884 0.0025
GW 777 24 -0.041 0.205 8.900 -0.041 0.205 9.884 0.0025
GW 777 24 0.000 0.205 8.900 0.000 0.205 9.884 0.0025
GW 777 24 0.041 0.205 8.900 0.041 0.205 9.884 0.0025
GW 777 24 0.082 0.205 8.900 0.082 0.205 9.884 0.0025
GW 777 24 0.123 0.205 8.900 0.123 0.205 9.884 0.0025
GW 777 24 0.164 0.205 8.900 0.164 0.205 9.884 0.0025
GW 777 8 -0.164 0.205 8.900 0.164 0.205 8.900 0.0025
GW 777 8 -0.164 0.205 8.941 0.164 0.205 8.941 0.0025
GW 777 8 -0.164 0.205 8.982 0.164 0.205 8.982 0.0025
GW 777 8 -0.164 0.205 9.023 0.164 0.205 9.023 0.0025
GW 777 8 -0.164 0.205 9.064 0.164 0.205 9.064 0.0025
GW 777 8 -0.164 0.205 9.105 0.164 0.205 9.105 0.0025
GW 777 8 -0.164 0.205 9.146 0.164 0.205 9.146 0.0025
GW 777 8 -0.164 0.205 9.187 0.164 0.205 9.187 0.0025
GW 777 8 -0.164 0.205 9.228 0.164 0.205 9.228 0.0025
GW 777 8 -0.164 0.205 9.269 0.164 0.205 9.269 0.0025
GW 777 8 -0.164 0.205 9.310 0.164 0.205 9.310 0.0025
GW 777 8 -0.164 0.205 9.351 0.164 0.205 9.351 0.0025
GW 777 8 -0.164 0.205 9.392 0.164 0.205 9.392 0.0025
GW 777 8 -0.164 0.205 9.433 0.164 0.205 9.433 0.0025
GW 777 8 -0.164 0.205 9.474 0.164 0.205 9.474 0.0025
GW 777 8 -0.164 0.205 9.515 0.164 0.205 9.515 0.0025
GW 777 8 -0.164 0.205 9.556 0.164 0.205 9.556 0.0025
GW 777 8 -0.164 0.205 9.597 0.164 0.205 9.597 0.0025
GW 777 8 -0.164 0.205 9.638 0.164 0.205 9.638 0.0025
GW 777 8 -0.164 0.205 9.679 0.164 0.205 9.679 0.0025
GW 777 8 -0.164 0.205 9.720 0.164 0.205 9.720 0.0025
GW 777 8 -0.164 0.205 9.761 0.164 0.205 9.761 0.0025
GW 777 8 -0.164 0.205 9.802 0.164 0.205 9.802 0.0025
GW 777 8 -0.164 0.205 9.843 0.164 0.205 9.843 0.0025
GW 777 8 -0.164 0.205 9.884 0.164 0.205 9.884 0.0025
LD 1 777 0 0 0 0 5.3125128000000016e-14
