CM
CM
CM
CE
SY BASE=7.3
SY W0=0.35
SY h0=0.59349
SY WD1 = 0.001
SY g=0.057456
SY l=0.199874

GW	1	1	-g/2	0	-l	g/2	0	-l	WD1/2
GW	11	2	-g/2	0	0	-w0/2	0	0	WD1/2
GW	21	2	g/2	0	0	w0/2	0	0	WD1/2
GW	31	3	g/2	0	0	g/2	0	-l	WD1/2
GW	41	3	-g/2	0	0	-g/2	0	-l	WD1/2
GW	2	5	-w0/2	0	0	-w0/2	0	h0	WD1/2
GW	3	5	-w0/2	0	h0	w0/2	0	h0	WD1/2
GW	4	5	w0/2	0	h0	w0/2	0	0	WD1/2

GM	0	0	0	0	0	0	0	BASE

GE -1
GN 2 0 0 0 11 0.01
FR	0	0	0	0	144.2
EX	0	1	1	0	1.
EN
