CM
CM
CM
CE
SY BASE=7.3
SY W0=0.54199
SY W1=0.949691
SY Y1=-0.3021
SY WD = 0.01


GW	1	5	-W0/2	0	0	W0/2	0	0	WD/2
GW	2	5	W0/2	0	0	W0/2	0	W0	WD/2
GW	3	5	W0/2	0	W0	-W0/2	0	W0	WD/2
GW	4	5	-W0/2	0	W0	-W0/2	0	0	WD/2

GW	11	5	-W1/2	Y1	w0/2	W1/2	Y1	w0/2	WD/2

GM	0	0	0	0	0	0	0	BASE

GE -1
GN 2 0 0 0 11 0.01
EX	0	1	3	0	1.
FR	0	5	0	0	144.2	1.0
EN
