CM
CM
CM
SY FR=144.2
SY Lam=300000/FR
SY Len=3020.298
SY Sl=220.495
SY Rads=520
SY BASE=6200
SY Wdmm=0.9
SY PWdmm=0.9
SY Off=-0.03259
SY Per=1.084178

SY Wrad=0.5*Wdmm
SY Ns=30
SY dZ=Len/Ns

GW	1	1	0	0.	-10	0	0.0	0.0	Wrad
GW	2	10	0	0.	-10	Rads	0.0	-10	Wrad
GM	1	3	0	0	90	0	0	0	2

SY i=1
SY Y=1+Sl*sin(360*(dZ*(i-0.5)*Per/Lam-Off))
GW	200+5*i	1	0	0.	dZ*(i-1.)	0	0.0	dZ*(i-.5)	Wrad
GW	201+5*i	1	0	0.	dZ*(i-.5)	0	Y	dZ*(i-.5)	Wrad
GW	202+5*i	1	0	0.	dZ*(i-.5)	0	-Y	dZ*(i-.5)	Wrad
GW	203+5*i	1	0	0.	dZ*(i-.5)	0	0.0	dZ*(i-.0)	Wrad
SY i=2
SY Y=1+Sl*sin(360*(dZ*(i-0.5)*Per/Lam-Off))
GW	200+5*i	1	0	0.	dZ*(i-1.)	0	0.0	dZ*(i-.5)	Wrad
GW	201+5*i	1	0	0.	dZ*(i-.5)	0	Y	dZ*(i-.5)	Wrad
GW	202+5*i	1	0	0.	dZ*(i-.5)	0	-Y	dZ*(i-.5)	Wrad
GW	203+5*i	1	0	0.	dZ*(i-.5)	0	0.0	dZ*(i-.0)	Wrad
SY i=3
SY Y=1+Sl*sin(360*(dZ*(i-0.5)*Per/Lam-Off))
GW	200+5*i	1	0	0.	dZ*(i-1.)	0	0.0	dZ*(i-.5)	Wrad
GW	201+5*i	1	0	0.	dZ*(i-.5)	0	Y	dZ*(i-.5)	Wrad
GW	202+5*i	1	0	0.	dZ*(i-.5)	0	-Y	dZ*(i-.5)	Wrad
GW	203+5*i	1	0	0.	dZ*(i-.5)	0	0.0	dZ*(i-.0)	Wrad
SY i=4
SY Y=1+Sl*sin(360*(dZ*(i-0.5)*Per/Lam-Off))
GW	200+5*i	1	0	0.	dZ*(i-1.)	0	0.0	dZ*(i-.5)	Wrad
GW	201+5*i	1	0	0.	dZ*(i-.5)	0	Y	dZ*(i-.5)	Wrad
GW	202+5*i	1	0	0.	dZ*(i-.5)	0	-Y	dZ*(i-.5)	Wrad
GW	203+5*i	1	0	0.	dZ*(i-.5)	0	0.0	dZ*(i-.0)	Wrad
SY i=5
SY Y=1+Sl*sin(360*(dZ*(i-0.5)*Per/Lam-Off))
GW	200+5*i	1	0	0.	dZ*(i-1.)	0	0.0	dZ*(i-.5)	Wrad
GW	201+5*i	1	0	0.	dZ*(i-.5)	0	Y	dZ*(i-.5)	Wrad
GW	202+5*i	1	0	0.	dZ*(i-.5)	0	-Y	dZ*(i-.5)	Wrad
GW	203+5*i	1	0	0.	dZ*(i-.5)	0	0.0	dZ*(i-.0)	Wrad
SY i=6
SY Y=1+Sl*sin(360*(dZ*(i-0.5)*Per/Lam-Off))
GW	200+5*i	1	0	0.	dZ*(i-1.)	0	0.0	dZ*(i-.5)	Wrad
GW	201+5*i	1	0	0.	dZ*(i-.5)	0	Y	dZ*(i-.5)	Wrad
GW	202+5*i	1	0	0.	dZ*(i-.5)	0	-Y	dZ*(i-.5)	Wrad
GW	203+5*i	1	0	0.	dZ*(i-.5)	0	0.0	dZ*(i-.0)	Wrad
SY i=7
SY Y=1+Sl*sin(360*(dZ*(i-0.5)*Per/Lam-Off))
GW	200+5*i	1	0	0.	dZ*(i-1.)	0	0.0	dZ*(i-.5)	Wrad
GW	201+5*i	1	0	0.	dZ*(i-.5)	0	Y	dZ*(i-.5)	Wrad
GW	202+5*i	1	0	0.	dZ*(i-.5)	0	-Y	dZ*(i-.5)	Wrad
GW	203+5*i	1	0	0.	dZ*(i-.5)	0	0.0	dZ*(i-.0)	Wrad
SY i=8
SY Y=1+Sl*sin(360*(dZ*(i-0.5)*Per/Lam-Off))
GW	200+5*i	1	0	0.	dZ*(i-1.)	0	0.0	dZ*(i-.5)	Wrad
GW	201+5*i	1	0	0.	dZ*(i-.5)	0	Y	dZ*(i-.5)	Wrad
GW	202+5*i	1	0	0.	dZ*(i-.5)	0	-Y	dZ*(i-.5)	Wrad
GW	203+5*i	1	0	0.	dZ*(i-.5)	0	0.0	dZ*(i-.0)	Wrad
SY i=9
SY Y=1+Sl*sin(360*(dZ*(i-0.5)*Per/Lam-Off))
GW	200+5*i	1	0	0.	dZ*(i-1.)	0	0.0	dZ*(i-.5)	Wrad
GW	201+5*i	1	0	0.	dZ*(i-.5)	0	Y	dZ*(i-.5)	Wrad
GW	202+5*i	1	0	0.	dZ*(i-.5)	0	-Y	dZ*(i-.5)	Wrad
GW	203+5*i	1	0	0.	dZ*(i-.5)	0	0.0	dZ*(i-.0)	Wrad
SY i=10
SY Y=1+Sl*sin(360*(dZ*(i-0.5)*Per/Lam-Off))
GW	200+5*i	1	0	0.	dZ*(i-1.)	0	0.0	dZ*(i-.5)	Wrad
GW	201+5*i	1	0	0.	dZ*(i-.5)	0	Y	dZ*(i-.5)	Wrad
GW	202+5*i	1	0	0.	dZ*(i-.5)	0	-Y	dZ*(i-.5)	Wrad
GW	203+5*i	1	0	0.	dZ*(i-.5)	0	0.0	dZ*(i-.0)	Wrad
SY i=11
SY Y=1+Sl*sin(360*(dZ*(i-0.5)*Per/Lam-Off))
GW	200+5*i	1	0	0.	dZ*(i-1.)	0	0.0	dZ*(i-.5)	Wrad
GW	201+5*i	1	0	0.	dZ*(i-.5)	0	Y	dZ*(i-.5)	Wrad
GW	202+5*i	1	0	0.	dZ*(i-.5)	0	-Y	dZ*(i-.5)	Wrad
GW	203+5*i	1	0	0.	dZ*(i-.5)	0	0.0	dZ*(i-.0)	Wrad
SY i=12
SY Y=1+Sl*sin(360*(dZ*(i-0.5)*Per/Lam-Off))
GW	200+5*i	1	0	0.	dZ*(i-1.)	0	0.0	dZ*(i-.5)	Wrad
GW	201+5*i	1	0	0.	dZ*(i-.5)	0	Y	dZ*(i-.5)	Wrad
GW	202+5*i	1	0	0.	dZ*(i-.5)	0	-Y	dZ*(i-.5)	Wrad
GW	203+5*i	1	0	0.	dZ*(i-.5)	0	0.0	dZ*(i-.0)	Wrad
SY i=13
SY Y=1+Sl*sin(360*(dZ*(i-0.5)*Per/Lam-Off))
GW	200+5*i	1	0	0.	dZ*(i-1.)	0	0.0	dZ*(i-.5)	Wrad
GW	201+5*i	1	0	0.	dZ*(i-.5)	0	Y	dZ*(i-.5)	Wrad
GW	202+5*i	1	0	0.	dZ*(i-.5)	0	-Y	dZ*(i-.5)	Wrad
GW	203+5*i	1	0	0.	dZ*(i-.5)	0	0.0	dZ*(i-.0)	Wrad
SY i=14
SY Y=1+Sl*sin(360*(dZ*(i-0.5)*Per/Lam-Off))
GW	200+5*i	1	0	0.	dZ*(i-1.)	0	0.0	dZ*(i-.5)	Wrad
GW	201+5*i	1	0	0.	dZ*(i-.5)	0	Y	dZ*(i-.5)	Wrad
GW	202+5*i	1	0	0.	dZ*(i-.5)	0	-Y	dZ*(i-.5)	Wrad
GW	203+5*i	1	0	0.	dZ*(i-.5)	0	0.0	dZ*(i-.0)	Wrad
SY i=15
SY Y=1+Sl*sin(360*(dZ*(i-0.5)*Per/Lam-Off))
GW	200+5*i	1	0	0.	dZ*(i-1.)	0	0.0	dZ*(i-.5)	Wrad
GW	201+5*i	1	0	0.	dZ*(i-.5)	0	Y	dZ*(i-.5)	Wrad
GW	202+5*i	1	0	0.	dZ*(i-.5)	0	-Y	dZ*(i-.5)	Wrad
GW	203+5*i	1	0	0.	dZ*(i-.5)	0	0.0	dZ*(i-.0)	Wrad
SY i=16
SY Y=1+Sl*sin(360*(dZ*(i-0.5)*Per/Lam-Off))
GW	200+5*i	1	0	0.	dZ*(i-1.)	0	0.0	dZ*(i-.5)	Wrad
GW	201+5*i	1	0	0.	dZ*(i-.5)	0	Y	dZ*(i-.5)	Wrad
GW	202+5*i	1	0	0.	dZ*(i-.5)	0	-Y	dZ*(i-.5)	Wrad
GW	203+5*i	1	0	0.	dZ*(i-.5)	0	0.0	dZ*(i-.0)	Wrad
SY i=17
SY Y=1+Sl*sin(360*(dZ*(i-0.5)*Per/Lam-Off))
GW	200+5*i	1	0	0.	dZ*(i-1.)	0	0.0	dZ*(i-.5)	Wrad
GW	201+5*i	1	0	0.	dZ*(i-.5)	0	Y	dZ*(i-.5)	Wrad
GW	202+5*i	1	0	0.	dZ*(i-.5)	0	-Y	dZ*(i-.5)	Wrad
GW	203+5*i	1	0	0.	dZ*(i-.5)	0	0.0	dZ*(i-.0)	Wrad
SY i=18
SY Y=1+Sl*sin(360*(dZ*(i-0.5)*Per/Lam-Off))
GW	200+5*i	1	0	0.	dZ*(i-1.)	0	0.0	dZ*(i-.5)	Wrad
GW	201+5*i	1	0	0.	dZ*(i-.5)	0	Y	dZ*(i-.5)	Wrad
GW	202+5*i	1	0	0.	dZ*(i-.5)	0	-Y	dZ*(i-.5)	Wrad
GW	203+5*i	1	0	0.	dZ*(i-.5)	0	0.0	dZ*(i-.0)	Wrad
SY i=19
SY Y=1+Sl*sin(360*(dZ*(i-0.5)*Per/Lam-Off))
GW	200+5*i	1	0	0.	dZ*(i-1.)	0	0.0	dZ*(i-.5)	Wrad
GW	201+5*i	1	0	0.	dZ*(i-.5)	0	Y	dZ*(i-.5)	Wrad
GW	202+5*i	1	0	0.	dZ*(i-.5)	0	-Y	dZ*(i-.5)	Wrad
GW	203+5*i	1	0	0.	dZ*(i-.5)	0	0.0	dZ*(i-.0)	Wrad
SY i=20
SY Y=1+Sl*sin(360*(dZ*(i-0.5)*Per/Lam-Off))
GW	200+5*i	1	0	0.	dZ*(i-1.)	0	0.0	dZ*(i-.5)	Wrad
GW	201+5*i	1	0	0.	dZ*(i-.5)	0	Y	dZ*(i-.5)	Wrad
GW	202+5*i	1	0	0.	dZ*(i-.5)	0	-Y	dZ*(i-.5)	Wrad
GW	203+5*i	1	0	0.	dZ*(i-.5)	0	0.0	dZ*(i-.0)	Wrad
SY i=21
SY Y=1+Sl*sin(360*(dZ*(i-0.5)*Per/Lam-Off))
GW	200+5*i	1	0	0.	dZ*(i-1.)	0	0.0	dZ*(i-.5)	Wrad
GW	201+5*i	1	0	0.	dZ*(i-.5)	0	Y	dZ*(i-.5)	Wrad
GW	202+5*i	1	0	0.	dZ*(i-.5)	0	-Y	dZ*(i-.5)	Wrad
GW	203+5*i	1	0	0.	dZ*(i-.5)	0	0.0	dZ*(i-.0)	Wrad
SY i=22
SY Y=1+Sl*sin(360*(dZ*(i-0.5)*Per/Lam-Off))
GW	200+5*i	1	0	0.	dZ*(i-1.)	0	0.0	dZ*(i-.5)	Wrad
GW	201+5*i	1	0	0.	dZ*(i-.5)	0	Y	dZ*(i-.5)	Wrad
GW	202+5*i	1	0	0.	dZ*(i-.5)	0	-Y	dZ*(i-.5)	Wrad
GW	203+5*i	1	0	0.	dZ*(i-.5)	0	0.0	dZ*(i-.0)	Wrad
SY i=23
SY Y=1+Sl*sin(360*(dZ*(i-0.5)*Per/Lam-Off))
GW	200+5*i	1	0	0.	dZ*(i-1.)	0	0.0	dZ*(i-.5)	Wrad
GW	201+5*i	1	0	0.	dZ*(i-.5)	0	Y	dZ*(i-.5)	Wrad
GW	202+5*i	1	0	0.	dZ*(i-.5)	0	-Y	dZ*(i-.5)	Wrad
GW	203+5*i	1	0	0.	dZ*(i-.5)	0	0.0	dZ*(i-.0)	Wrad
SY i=24
SY Y=1+Sl*sin(360*(dZ*(i-0.5)*Per/Lam-Off))
GW	200+5*i	1	0	0.	dZ*(i-1.)	0	0.0	dZ*(i-.5)	Wrad
GW	201+5*i	1	0	0.	dZ*(i-.5)	0	Y	dZ*(i-.5)	Wrad
GW	202+5*i	1	0	0.	dZ*(i-.5)	0	-Y	dZ*(i-.5)	Wrad
GW	203+5*i	1	0	0.	dZ*(i-.5)	0	0.0	dZ*(i-.0)	Wrad
SY i=25
SY Y=1+Sl*sin(360*(dZ*(i-0.5)*Per/Lam-Off))
GW	200+5*i	1	0	0.	dZ*(i-1.)	0	0.0	dZ*(i-.5)	Wrad
GW	201+5*i	1	0	0.	dZ*(i-.5)	0	Y	dZ*(i-.5)	Wrad
GW	202+5*i	1	0	0.	dZ*(i-.5)	0	-Y	dZ*(i-.5)	Wrad
GW	203+5*i	1	0	0.	dZ*(i-.5)	0	0.0	dZ*(i-.0)	Wrad
SY i=26
SY Y=1+Sl*sin(360*(dZ*(i-0.5)*Per/Lam-Off))
GW	200+5*i	1	0	0.	dZ*(i-1.)	0	0.0	dZ*(i-.5)	Wrad
GW	201+5*i	1	0	0.	dZ*(i-.5)	0	Y	dZ*(i-.5)	Wrad
GW	202+5*i	1	0	0.	dZ*(i-.5)	0	-Y	dZ*(i-.5)	Wrad
GW	203+5*i	1	0	0.	dZ*(i-.5)	0	0.0	dZ*(i-.0)	Wrad
SY i=27
SY Y=1+Sl*sin(360*(dZ*(i-0.5)*Per/Lam-Off))
GW	200+5*i	1	0	0.	dZ*(i-1.)	0	0.0	dZ*(i-.5)	Wrad
GW	201+5*i	1	0	0.	dZ*(i-.5)	0	Y	dZ*(i-.5)	Wrad
GW	202+5*i	1	0	0.	dZ*(i-.5)	0	-Y	dZ*(i-.5)	Wrad
GW	203+5*i	1	0	0.	dZ*(i-.5)	0	0.0	dZ*(i-.0)	Wrad
SY i=28
SY Y=1+Sl*sin(360*(dZ*(i-0.5)*Per/Lam-Off))
GW	200+5*i	1	0	0.	dZ*(i-1.)	0	0.0	dZ*(i-.5)	Wrad
GW	201+5*i	1	0	0.	dZ*(i-.5)	0	Y	dZ*(i-.5)	Wrad
GW	202+5*i	1	0	0.	dZ*(i-.5)	0	-Y	dZ*(i-.5)	Wrad
GW	203+5*i	1	0	0.	dZ*(i-.5)	0	0.0	dZ*(i-.0)	Wrad
SY i=29
SY Y=1+Sl*sin(360*(dZ*(i-0.5)*Per/Lam-Off))
GW	200+5*i	1	0	0.	dZ*(i-1.)	0	0.0	dZ*(i-.5)	Wrad
GW	201+5*i	1	0	0.	dZ*(i-.5)	0	Y	dZ*(i-.5)	Wrad
GW	202+5*i	1	0	0.	dZ*(i-.5)	0	-Y	dZ*(i-.5)	Wrad
GW	203+5*i	1	0	0.	dZ*(i-.5)	0	0.0	dZ*(i-.0)	Wrad
SY i=30
SY Y=1+Sl*sin(360*(dZ*(i-0.5)*Per/Lam-Off))
GW	200+5*i	1	0	0.	dZ*(i-1.)	0	0.0	dZ*(i-.5)	Wrad
GW	201+5*i	1	0	0.	dZ*(i-.5)	0	Y	dZ*(i-.5)	Wrad
GW	202+5*i	1	0	0.	dZ*(i-.5)	0	-Y	dZ*(i-.5)	Wrad
GW	203+5*i	1	0	0.	dZ*(i-.5)	0	0.0	dZ*(i-.0)	Wrad

GM	0	0	0	0	0	0	0	Base

GS	0	0	0.001

GE -1
GN 2 0 0 0 11 0.01

EX	0	1	1	0	1.
FR	0	5	0	0	FR	1.0
EN
