CM
CM
CM
SY Len=1000
SY BASE=6200
SY Wdmm=0.9
SY PWdmm=0.9

SY Wrad=0.5*Wdmm
SY PWrad=0.5*PWdmm
SY GWrad=2.5
SY GAMsep=14.45196
SY GAMlen=148.008
SY GAMCap=GAMlen*100/1000

SY Pgap=648.457
SY Sl=176.9494
SY Ns=10
SY Seg=Pgap/Ns
SY Toplen=698.32

GW	20	1	0	0.	Len/2	0	0.0	Len/2+Seg	Wrad
GW	21	1	0	0.	Len/2	0	Sl	Len/2	Wrad
GW	22	1	0	0.	Len/2	0	-Sl	Len/2	Wrad
GM	100	Ns-1	0	0	0	0	0	Seg

GW	1	10	0	0.	-Len/2	0	0.0	0	Wrad
GW	2	5	0	0.	0	0	0.0	GAMlen	Wrad
GW	3	10	0	0.	GAMlen	0	0.0	Len/2	Wrad

GW	12	5	GAMsep	0.	0	GAMsep	0.0	GAMlen	Wrad
GW	13	2	0	0.	0	GAMsep	0.0	0	GWrad
GW	14	1	0	0.	GAMlen	GAMsep	0.0	GAMlen	Wrad

GW	51	20	0	0.	Len/2+Pgap	0	0.0	Len/2+Pgap+TopLen	Wrad

GM	0	0	0	0	0	0	0	Base+Len/2

GS	0	0	0.001


GE -1
GN 2 0 0 0 11 0.01
LD	0	13	2	2	0.01	0	GAMCap/1e12
EX	0	13	1	0	1.
FR	0	5	0	0	144.2	1.0
EN
