CM
CM
CM
CE
SY BASE=7.3
SY WD=0.005

GW	1	9	-0.375	0	0	0.375	0	0	WD/2
GW	2	3	-0.375	0	0	-0.375	-0.104	0	WD/2
GW	3	3	0.375	0	0	0.375	-0.104	0	WD/2
GW	4	3	-0.375	-0.105	0	-0.375	-0.277	0	WD/2
GW	5	3	0.375	-0.105	0	0.375	-0.277	0	WD/2
GW	6	9	-0.375	-0.277	0	0.375	-0.277	0	WD/2

GM	0	0	0	0	0	0	0	BASE

GE -1
GN 2 0 0 0 11 0.01
EX  0    1    5    0  1.
FR  0    5    0    0  144.      1.0
EN
