CM
CE
GW 1 3 -0.200  0.000  0.000 -0.044  0.000  0.000  0.0005
GW 999 1 -0.044  0.000  0.000 0.008  0.000  0.000  0.0005
GW 1 3 0.008  0.000  0.000 0.200  0.000  0.000  0.0005
GW 2 4 -0.200  -0.060  -0.040 -0.200  -0.060  0.040  0.0005
GW 2 4 -0.200  -0.040  -0.040 -0.200  -0.040  0.040  0.0005
GW 2 4 -0.200  -0.020  -0.040 -0.200  -0.020  0.040  0.0005
GW 2 4 -0.200  0.000  -0.040 -0.200  0.000  0.040  0.0005
GW 2 4 -0.200  0.020  -0.040 -0.200  0.020  0.040  0.0005
GW 2 4 -0.200  0.040  -0.040 -0.200  0.040  0.040  0.0005
GW 2 4 -0.200  0.060  -0.040 -0.200  0.060  0.040  0.0005
GW 2 6 -0.200  -0.060  -0.040 -0.200  0.060  -0.040  0.0005
GW 2 6 -0.200  -0.060  -0.020 -0.200  0.060  -0.020  0.0005
GW 2 6 -0.200  -0.060  0.000 -0.200  0.060  0.000  0.0005
GW 2 6 -0.200  -0.060  0.020 -0.200  0.060  0.020  0.0005
GW 2 6 -0.200  -0.060  0.040 -0.200  0.060  0.040  0.0005
GW 3 4 0.200  -0.060  -0.040 0.200  -0.060  0.040  0.0005
GW 3 4 0.200  -0.040  -0.040 0.200  -0.040  0.040  0.0005
GW 3 4 0.200  -0.020  -0.040 0.200  -0.020  0.040  0.0005
GW 3 4 0.200  0.000  -0.040 0.200  0.000  0.040  0.0005
GW 3 4 0.200  0.020  -0.040 0.200  0.020  0.040  0.0005
GW 3 4 0.200  0.040  -0.040 0.200  0.040  0.040  0.0005
GW 3 4 0.200  0.060  -0.040 0.200  0.060  0.040  0.0005
GW 3 6 0.200  -0.060  -0.040 0.200  0.060  -0.040  0.0005
GW 3 6 0.200  -0.060  -0.020 0.200  0.060  -0.020  0.0005
GW 3 6 0.200  -0.060  0.000 0.200  0.060  0.000  0.0005
GW 3 6 0.200  -0.060  0.020 0.200  0.060  0.020  0.0005
GW 3 6 0.200  -0.060  0.040 0.200  0.060  0.040  0.0005
GM 0 0 0 0 0 0 0 8.000
GE -1
GN 2 0 0 0 11.000 0.010 
EK
LD 5 0 0 0 58000000 0.0 0.0
LD 5 2 0 0 1000000000000.0 0.0 0.0
LD 5 3 0 0 1000000000000.0 0.0 0.0
EX 0 999 1 0 1 0
FR 0 1 0 0 144.000 0
RP 0 19 37 1003 0 0 5 10.0
EN