CM
CE
GW 10 1 0 -2 2 0 -2 2.1 0.005
GW 1 47 0 0 0 0 0 15 0.005
GE 1
GN 1
EK
EX 6 1 1 1 0
TL 10 1 1 16 50 5 1e+99 1e+99 0.0001
FR 0 0 0 0 15 0
EN