CM
CM
CM
CE
SY BASE=6.3

SY W0 = 0.005
SY L0=0.984812
SY L1=0.989125
SY Z1=1.125457
SY Y1=-0.38419

GW	0	9	-L0/2	0	0	L0/2	0	0	W0/2
GW	1	9	-L1/2	y1	Z1	L1/2	y1	Z1	W0/2

GM	0	0	0	0	0	0	0	BASE

GE -1
GN 2 0 0 0 11 0.01
EX	0	0	5	0	1.
FR	0	5	0	0	144.2	1.0
EN
