CM
CM
CM
CM forw: 84, 89 ; back: 84, 269
CE
SY BASE=6.3

SY W0 = 0.005
SY L0=0.984812
SY L1=0.987627
SY Z1=1.120371
SY Y1=-0.38125

GW	0	9	-L0/2	0	0	L0/2	0	0	W0/2
GW	1	9	-L1/2	y1	Z1	L1/2	y1	Z1	W0/2

GM	0	0	0	0	0	0	0	BASE

GE -1
GN 2 0 0 0 11 0.01
EX	0	0	5	0	1.
FR,0,1,0,0,144.2
PQ -1
PT -1
RP,0,36,72,1003,-86,4,5,5
