CM
CM
CM
CM forw: 86, 90 ; back:-86, 90
CE
SY BASE=7.3
SY Xc=0
SY Yc=0
SY Phi=0
SY RefY=-0.67
SY DirY=0.5
SY Lref=1.0
SY WD=0.005
SY WDD = WD * 12/16
SY LDriv=0.95
SY LDriv=0.985152
SY lDir=0.963494

GW	1	9	-LDriv/2	0.	0	LDriv/2	0.0	0	WDD/2
GW	2	9	-Lref/2	RefY	0	Lref/2	RefY	0	WD/2
GW	3	9	-LDir/2	DirY	0	LDir/2	DirY	0	WD/2
GM	0	0	0	0	Phi	Xc	Yc	BASE

GE -1
GN 2 0 0 0 11 0.01
EX	0	1	5	0	1.
FR,0,1,0,0,144.2
PQ -1
PT -1
RP,0,181,1,1000,-90,90,1
