CM
CM
CM
CM forw: 85, 270 ; back: 85, 90
CE
SY BASE=7.3
SY Sep=0.26
SY Lref=1.0
SY WD=0.005
SY LD=0.965

GW	1	9	-LD/2	0.	0	LD/2	0.0	0	WD/2
GW	2	9	-Lref/2	sep	0	Lref/2	sep	0	WD/2
GM	0	0	0	0	0	0	0	BASE

GE -1
GN 2 0 0 0 11 0.01
EX  0    1    5    0  1.
FR,0,1,0,0,144.2
PQ -1
PT -1
RP,0,19,73,1003,-90,0,5,5
