CM
CM
CM
CM forw: 45, 85 ; back: 45, 265
CE
SY BASE=7.3
SY H1=0.499742
SY H2=1.07063
SY W1=0.355963
SY WD1=1.e-3
SY C=19.73761

GW	1	1	-0.03	0	0	.03	0	0	WD1/2
GW	2	5	-.03	0	0	-w1/2	0	h1	WD1/2
GW	3	5	-w1/2	0	h1	0	0	h2	WD1/2
GW	4	5	0	0	h2	w1/2	0	h1	WD1/2
GW	5	5	w1/2	0	h1	.03	0	0	WD1/2

GM	0	0	0	0	-32	0	0	BASE

GE -1
GN 2 0 0 0 11 0.01
LD	1	1	1	1	0	0	C * 1e-12
EX	0	1	1	0	1.
FR,0,1,0,0,144.2
PQ -1
PT -1
