CM
CM
CM
CM forw: 86, 88 ; back: 94, 268
CE
SY W0 = 0.005
SY L0=0.5
GW	100	9	-L0/2	0	0	L0/2	0	0	W0/2


GE -0
EX	0	100	5	0	1.
FR,0,1,0,0,300
PQ -1
PT -1
