CM
CM
CM
CM forw: 90, 270 ; back: 90, 90
CE
SY W0 = 0.005

SY L0 = 0.375
SY L1=0.283606
SY H0=0.118105
SY H1=0.17387

SY hL0 = L0/2
SY hL1 = L1/2

SY lf = 0.005

GW	1	5	lf	0	0	hL0	0	0	W0/2
GW	2	1	hL0	0	0	hL0	0	-H0	W0/2
GW	3	3	hL0	0	-H0	hL1	0	-H0	W0/2
GW	4	3	hL1	0	-H0	hL1	0	-H1	W0/2
GW	5	3	hL1	0	-H1	0	0	-H1	W0/2

GX	10	100
GM	0	0	90


GW	100	9	-lf	0	0	lf	0	0	W0/2


GE 0
EX	0	100	5	0	1.
FR,0,1,0,0,300
PQ -1
PT -1
RP,0,37,73,1003,-180,0,5,5
