SY Dwire=1	'mm
SY H=7.0	'm
SY L=20.53964	'm
GW	300	9	0	0	-L/2	0	0	L/2	Dwire/2000
GM	0	0	90	0	0	0	0	H
GE -1
LD	5	0	0	0	58000000

GN 2 0 0 0 11 0.01
EX	0	300	5	0	1	0
FR	0	1	0	0	7.05	0
EN						
