CM
CM
CM
CE
SY BASE=7.3

SY W0 = 0.005

SY hL0=0.24598
SY hL1=0.082988
SY H=0.04693

SY lf = 0.03
SY lhp=0.09199

GW	1	5	lf	0	0	hL0	0	0	W0/2
GW	2	1	hL0	0	0	hL0	0	-H	W0/2
GW	3	3	hL0	0	-H	hL1	0	-H	W0/2
GW	4	1	hL1	0	-H	hL1	0	-2*H	W0/2
GW	5	5	hL1	0	-2*H	hL0	0	-2*H	W0/2
GX	10	100


GW	100	1	-lf	0	0	lf	0	0	W0/2
GW	101	3	-lf	0	0	-lf	0	lhp	W0/2
GW	102	3	lf	0	0	lf	0	lhp	W0/2
GW	103	9	-lf	0	lhp	lf	0	lhp	W0/2


GM	0	0	0	0	0	0	0	BASE

GE -1
GN 2 0 0 0 11 0.01
EX	0	100	1	0	1.
FR	0	5	0	0	144.2	1.0
EN
