CM
CM
CM
CE
SY BASE=7.3
SY GAP = 0.03
SY WD=0.005
SY LD=1.304136
SY Lstub=0.313637



GW	1	19	0.	0	GAP/2	0.0	0	GAP/2+LD	WD/2
GW	2	19	0.	0	-GAP/2	0.0	0	-GAP/2-LD	WD/2
GW	5	5	0	0	-GAP/2	0	-Lstub	-GAP/2		WD/2
GW	6	5	0	0	GAP/2	0	-Lstub	GAP/2		WD/2
GW	7	1	0	-Lstub	-GAP/2	0	-Lstub	GAP/2		WD/2

GM	0	0	0	0	-32	0	0	BASE

GE -1
GN 2 0 0 0 11 0.01
EX  0    7    1    0  1.
FR  0    5    0    0  144.      1.0
EN
