CM
CM
CM
CM forw: 86, 90 ; back: 86, 270
CE
SY BASE=7.3

SY W0 = 0.005
SY L0=0.31852

GW	100	9	-L0/2	0	0	L0/2	0	0	W0/2

GM	0	0	0	0	0	0	0	BASE

GE -1
GN 2 0 0 0 11 0.01
EX	0	100	5	0	1.
FR,0,1,0,0,433.2
PQ -1
PT -1
RP,0,36,73,1003,-89,0,5,5
