CM
CM
CM
CM forw: 86, 88 ; back: 86, 268
CE
SY BASE=7.3
SY W0=0.198292
SY WD = 0.01


GW	1	5	-W0/2	0	0	W0/2	0	0	WD/2
GW	2	5	W0/2	0	0	W0/2	0	W0	WD/2
GW	3	5	W0/2	0	W0	-W0/2	0	W0	WD/2
GW	4	5	-W0/2	0	W0	-W0/2	0	0	WD/2

GM	0	0	0	0	0	0	0	BASE

GE -1
GN 2 0 0 0 11 0.01
EX	0	1	3	0	1.
FR,0,1,0,0,433.2
PQ -1
PT -1
