CM
CM
CM
CE
SY BASE=7.3
SY Xc=-0.85
SY Yc=-0.1
SY Phi=120

GW  1    16    -0.55      0.000        0     0.55    0.000     0    .0060
GW  2    16    -0.53     -0.375        0    0.53   -0.375      0    .0025
GW  3    16    -0.46      0.090        0     0.46    0.090     0    .0025
GW  4    16    -0.46      0.280        0    0.46    0.280      0    .0025
GW  5    16    -0.46      0.545        0     0.46    0.545     0    .0025
GM	0	0	0	0	Phi	Xc	Yc	BASE

GE 0
EX  0    1    8    0  1.
FR	0	5	0	0	144.2	1.0
EN
