CM
CM
CM
CE
SY BASE=5.3

SY W0 = 0.005

SY L0=1.000
SY y0 = -0.3
SY w = 0.43
SY h = 0.47
SY dx = 0.57
SY dz = 0.51


'GW	1	9	-w/2	0	-h/2	w/2	0	-h/2	0.005
'GW	2	9	w/2	0	-h/2	w/2	0	h/2	0.005
'GW	3	9	w/2	0	h/2	-w/2	0	h/2	.005
'GW	4	9	-w/2	0	h/2	-w/2	0	-h/2	0.005
GM	0	0	0	0	0	dx/2	0	-dz/2
GM	10	1	0	0	0	-dx	0	0
GM	10	1	0	0	0	0	0	dz

GW	100	9	-L0/2	Y0	0	L0/2	Y0	0	W0/2

GM	0	0	0	0	0	0	0	BASE

GE -1
GN 2 0 0 0 11 0.01
EX	0	100	5	0	1.
FR	0	5	0	0	144.2	1.0
EN
