CM
CM
CM
CE
SY W0 = 0.005
SY L0=0.464272
GW	100	9	-L0/2	0	0	L0/2	0	0	W0/2


GE -0
EX	0	100	5	0	1.
FR	0	5	0	0	300	1.0
EN
