CM
CM
CM
CE
SY W0 = 0.005
SY L0=0.346473
SY h0=0.260006
SY wm=.01

GW	1	9	wm/2	0	0	wm/2	0	h0/2	W0/2
GW	2	9	wm/2	0	h0/2	L0/2	0	h0/2	W0/2
GW	3	9	L0/2	0	h0/2	L0/2	0	0	W0/2
GX	10	100
GX	50	001

GW	100	9	-wm/2	0	0	wm/2	0	0	W0/2


GE -0
EX	0	100	5	0	1.
FR	0	5	0	0	300	1.0
EN
