CM
CE

SY HT=0.990
SY WD=0.28
SY S=0.108068
'
GW	1	3	-WD/2	0.	0.0	WD/2	0.0	0.0	.005
GW	2	5	-WD/2	0.	0.0	-WD/2	0.0	S	.005
GW	21	9	-WD/2	0.	S	-WD/2	0.0	HT	.005
GW	3	5	WD/2	0.	0.0	WD/2	0.0	S	.005
GW	31	9	WD/2	0.	S	WD/2	0.0	HT	.005
GW	4	3	-WD/2	0.	HT	WD/2	0.0	HT	.005
GW	5	3	-WD/2	0.	S	WD/2	0.0	S	.005


GE 0

EX	0	5	2	0	1.
FR	0	5	0	0	144.2	1.0
EN
