CM
CM Y is North
CE
SY BASE=8850
SY Wdia=10
SY H=990
SY W=280
SY S=120.6487
SY Phi=90
'
GW	0	3	-W/2	0.	0.0	0.0	0.0	0.0	Wdia/2
GW	1	3	0.0	0.	0.0	W/2	0.0	0.0	Wdia/2
GW	2	3	-W/2	0.	0.0	-W/2	0.0	S	Wdia/2
GW	21	20	-W/2	0.	S	-W/2	0.0	H	Wdia/2
GW	3	3	W/2	0.	0.0	W/2	0.0	S	Wdia/2
GW	31	20	W/2	0.	S	W/2	0.0	H	Wdia/2
GW	4	6	-W/2	0.	H	W/2	0.0	H	Wdia/2
GW	5	3	-W/2	0.	S	-5	0.0	S	Wdia/2
GW	6	3	5	0.	S	W/2	0.0	S	Wdia/2
GW	7	1	-5	0.	S	5	0.0	S	Wdia/2
GM	0	0	0	0	-Phi	0	0	BASE
GS	0	0	0.001


GW 778 13 -0.184 -0.164 8.650 -0.184 -0.164 9.183 0.0025
GW 778 13 -0.184 -0.123 8.650 -0.184 -0.123 9.183 0.0025
GW 778 13 -0.184 -0.082 8.650 -0.184 -0.082 9.183 0.0025
GW 778 13 -0.184 -0.041 8.650 -0.184 -0.041 9.183 0.0025
GW 778 13 -0.184 0.000 8.650 -0.184 0.000 9.183 0.0025
GW 778 13 -0.184 0.041 8.650 -0.184 0.041 9.183 0.0025
GW 778 13 -0.184 0.082 8.650 -0.184 0.082 9.183 0.0025
GW 778 13 -0.184 0.123 8.650 -0.184 0.123 9.183 0.0025
GW 778 13 -0.184 0.164 8.650 -0.184 0.164 9.183 0.0025
GW 778 10 -0.184 -0.205 8.650 -0.184 0.205 8.650 0.0025
GW 778 10 -0.184 -0.205 8.691 -0.184 0.205 8.691 0.0025
GW 778 10 -0.184 -0.205 8.732 -0.184 0.205 8.732 0.0025
GW 778 10 -0.184 -0.205 8.773 -0.184 0.205 8.773 0.0025
GW 778 10 -0.184 -0.205 8.814 -0.184 0.205 8.814 0.0025
GW 778 10 -0.184 -0.205 8.855 -0.184 0.205 8.855 0.0025
GW 778 10 -0.184 -0.205 8.896 -0.184 0.205 8.896 0.0025
GW 778 10 -0.184 -0.205 8.937 -0.184 0.205 8.937 0.0025
GW 778 10 -0.184 -0.205 8.978 -0.184 0.205 8.978 0.0025
GW 778 10 -0.184 -0.205 9.019 -0.184 0.205 9.019 0.0025
GW 778 10 -0.184 -0.205 9.060 -0.184 0.205 9.060 0.0025
GW 778 10 -0.184 -0.205 9.101 -0.184 0.205 9.101 0.0025
GW 778 10 -0.184 -0.205 9.142 -0.184 0.205 9.142 0.0025
GW 778 10 -0.184 -0.205 9.183 -0.184 0.205 9.183 0.0025
GW 778 13 0.184 -0.164 8.650 0.184 -0.164 9.183 0.0025
GW 778 13 0.184 -0.123 8.650 0.184 -0.123 9.183 0.0025
GW 778 13 0.184 -0.082 8.650 0.184 -0.082 9.183 0.0025
GW 778 13 0.184 -0.041 8.650 0.184 -0.041 9.183 0.0025
GW 778 13 0.184 0.000 8.650 0.184 0.000 9.183 0.0025
GW 778 13 0.184 0.041 8.650 0.184 0.041 9.183 0.0025
GW 778 13 0.184 0.082 8.650 0.184 0.082 9.183 0.0025
GW 778 13 0.184 0.123 8.650 0.184 0.123 9.183 0.0025
GW 778 13 0.184 0.164 8.650 0.184 0.164 9.183 0.0025
GW 778 10 0.184 -0.205 8.650 0.184 0.205 8.650 0.0025
GW 778 10 0.184 -0.205 8.691 0.184 0.205 8.691 0.0025
GW 778 10 0.184 -0.205 8.732 0.184 0.205 8.732 0.0025
GW 778 10 0.184 -0.205 8.773 0.184 0.205 8.773 0.0025
GW 778 10 0.184 -0.205 8.814 0.184 0.205 8.814 0.0025
GW 778 10 0.184 -0.205 8.855 0.184 0.205 8.855 0.0025
GW 778 10 0.184 -0.205 8.896 0.184 0.205 8.896 0.0025
GW 778 10 0.184 -0.205 8.937 0.184 0.205 8.937 0.0025
GW 778 10 0.184 -0.205 8.978 0.184 0.205 8.978 0.0025
GW 778 10 0.184 -0.205 9.019 0.184 0.205 9.019 0.0025
GW 778 10 0.184 -0.205 9.060 0.184 0.205 9.060 0.0025
GW 778 10 0.184 -0.205 9.101 0.184 0.205 9.101 0.0025
GW 778 10 0.184 -0.205 9.142 0.184 0.205 9.142 0.0025
GW 778 10 0.184 -0.205 9.183 0.184 0.205 9.183 0.0025
GW 778 13 -0.184 -0.205 8.650 -0.184 -0.205 9.183 0.0025
GW 778 13 -0.143 -0.205 8.650 -0.143 -0.205 9.183 0.0025
GW 778 13 -0.102 -0.205 8.650 -0.102 -0.205 9.183 0.0025
GW 778 13 -0.061 -0.205 8.650 -0.061 -0.205 9.183 0.0025
GW 778 13 -0.020 -0.205 8.650 -0.020 -0.205 9.183 0.0025
GW 778 13 0.021 -0.205 8.650 0.021 -0.205 9.183 0.0025
GW 778 13 0.061 -0.205 8.650 0.061 -0.205 9.183 0.0025
GW 778 13 0.103 -0.205 8.650 0.103 -0.205 9.183 0.0025
GW 778 13 0.144 -0.205 8.650 0.144 -0.205 9.183 0.0025
GW 778 13 0.184 -0.205 8.650 0.184 -0.205 9.183 0.0025
GW 778 9 -0.184 -0.205 8.650 0.184 -0.205 8.650 0.0025
GW 778 9 -0.184 -0.205 8.691 0.184 -0.205 8.691 0.0025
GW 778 9 -0.184 -0.205 8.732 0.184 -0.205 8.732 0.0025
GW 778 9 -0.184 -0.205 8.773 0.184 -0.205 8.773 0.0025
GW 778 9 -0.184 -0.205 8.814 0.184 -0.205 8.814 0.0025
GW 778 9 -0.184 -0.205 8.855 0.184 -0.205 8.855 0.0025
GW 778 9 -0.184 -0.205 8.896 0.184 -0.205 8.896 0.0025
GW 778 9 -0.184 -0.205 8.937 0.184 -0.205 8.937 0.0025
GW 778 9 -0.184 -0.205 8.978 0.184 -0.205 8.978 0.0025
GW 778 9 -0.184 -0.205 9.019 0.184 -0.205 9.019 0.0025
GW 778 9 -0.184 -0.205 9.060 0.184 -0.205 9.060 0.0025
GW 778 9 -0.184 -0.205 9.101 0.184 -0.205 9.101 0.0025
GW 778 9 -0.184 -0.205 9.142 0.184 -0.205 9.142 0.0025
GW 778 9 -0.184 -0.205 9.183 0.184 -0.205 9.183 0.0025
GW 778 13 -0.184 0.205 8.650 -0.184 0.205 9.183 0.0025
GW 778 13 -0.143 0.205 8.650 -0.143 0.205 9.183 0.0025
GW 778 13 -0.102 0.205 8.650 -0.102 0.205 9.183 0.0025
GW 778 13 -0.061 0.205 8.650 -0.061 0.205 9.183 0.0025
GW 778 13 -0.020 0.205 8.650 -0.020 0.205 9.183 0.0025
GW 778 13 0.021 0.205 8.650 0.021 0.205 9.183 0.0025
GW 778 13 0.061 0.205 8.650 0.061 0.205 9.183 0.0025
GW 778 13 0.103 0.205 8.650 0.103 0.205 9.183 0.0025
GW 778 13 0.144 0.205 8.650 0.144 0.205 9.183 0.0025
GW 778 13 0.184 0.205 8.650 0.184 0.205 9.183 0.0025
GW 778 9 -0.184 0.205 8.650 0.184 0.205 8.650 0.0025
GW 778 9 -0.184 0.205 8.691 0.184 0.205 8.691 0.0025
GW 778 9 -0.184 0.205 8.732 0.184 0.205 8.732 0.0025
GW 778 9 -0.184 0.205 8.773 0.184 0.205 8.773 0.0025
GW 778 9 -0.184 0.205 8.814 0.184 0.205 8.814 0.0025
GW 778 9 -0.184 0.205 8.855 0.184 0.205 8.855 0.0025
GW 778 9 -0.184 0.205 8.896 0.184 0.205 8.896 0.0025
GW 778 9 -0.184 0.205 8.937 0.184 0.205 8.937 0.0025
GW 778 9 -0.184 0.205 8.978 0.184 0.205 8.978 0.0025
GW 778 9 -0.184 0.205 9.019 0.184 0.205 9.019 0.0025
GW 778 9 -0.184 0.205 9.060 0.184 0.205 9.060 0.0025
GW 778 9 -0.184 0.205 9.101 0.184 0.205 9.101 0.0025
GW 778 9 -0.184 0.205 9.142 0.184 0.205 9.142 0.0025
GW 778 9 -0.184 0.205 9.183 0.184 0.205 9.183 0.0025

GE	1
LD	5	0	0	0	58000000
GN 2 0 0 0 11 0.01
EK
EX	0	7	1	0	1.
FR	0	0	0	0	144.2	0
EN
