CM
CM Y is North
CE
SY BASE=7400
SY Wdia=10
SY H=550
SY W=263.8801
SY D=221.8282
'
GW	1	7	-D/2	-W/2	0	-D/2	-W/2	H	Wdia/2
GW	3	7	-D/2	-W/2	0	0	-W/2	0	Wdia/2
GW	4	7	-D/2	-W/2	H	0	-W/2	H	Wdia/2
GX	1	100
GX	1	010
GW	20	7	0	-W/2	H	0	W/2	H	Wdia/2
GW	30	7	0	-W/2	0	0	W/2	0	Wdia/2

GM	0	0	0	0	0	0	0	BASE

GS	0	0	0.001
GE -1
GN 2 0 0 0 11 0.01
EX	0	30	4	0	1.
FR	0	5	0	0	144.2	1.0
EN
