CM Length X1 = 3
CM Length X2 = 3
CM Length Y = 3
CM X sections = 5
CM Y sections = 5
CM Rotate X, Y, Z = 0, 90, 0
CM Move X, Y, Z = 0, 0, 0
CE
GW   100    6    -2.23     -1.5      9.5    -2.23      -.9      9.5  .047746
GW   101    6    -2.23      -.9      9.5    -2.23      -.3      9.5  .047746
GW   102    6    -2.23      -.3      9.5    -2.23       .3      9.5  .047746
GW   103    6    -2.23       .3      9.5    -2.23       .9      9.5  .047746
GW   104    6    -2.23       .9      9.5    -2.23      1.5      9.5  .047746
GW   105    6    -2.23     -1.5      8.9    -2.23      -.9      8.9  .047746
GW   106    6    -2.23      -.9      8.9    -2.23      -.3      8.9  .047746
GW   107    6    -2.23      -.3      8.9    -2.23       .3      8.9  .047746
GW   108    6    -2.23       .3      8.9    -2.23       .9      8.9  .047746
GW   109    6    -2.23       .9      8.9    -2.23      1.5      8.9  .047746
GW   110    6    -2.23     -1.5      8.3    -2.23      -.9      8.3  .047746
GW   111    6    -2.23      -.9      8.3    -2.23      -.3      8.3  .047746
GW   112    6    -2.23      -.3      8.3    -2.23       .3      8.3  .047746
GW   113    6    -2.23       .3      8.3    -2.23       .9      8.3  .047746
GW   114    6    -2.23       .9      8.3    -2.23      1.5      8.3  .047746
GW   115    6    -2.23     -1.5      7.7    -2.23      -.9      7.7  .047746
GW   116    6    -2.23      -.9      7.7    -2.23      -.3      7.7  .047746
GW   117    6    -2.23      -.3      7.7    -2.23       .3      7.7  .047746
GW   118    6    -2.23       .3      7.7    -2.23       .9      7.7  .047746
GW   119    6    -2.23       .9      7.7    -2.23      1.5      7.7  .047746
GW   120    6    -2.23     -1.5      7.1    -2.23      -.9      7.1  .047746
GW   121    6    -2.23      -.9      7.1    -2.23      -.3      7.1  .047746
GW   122    6    -2.23      -.3      7.1    -2.23       .3      7.1  .047746
GW   123    6    -2.23       .3      7.1    -2.23       .9      7.1  .047746
GW   124    6    -2.23       .9      7.1    -2.23      1.5      7.1  .047746
GW   125    6    -2.23     -1.5      6.5    -2.23      -.9      6.5  .047746
GW   126    6    -2.23      -.9      6.5    -2.23      -.3      6.5  .047746
GW   127    6    -2.23      -.3      6.5    -2.23       .3      6.5  .047746
GW   128    6    -2.23       .3      6.5    -2.23       .9      6.5  .047746
GW   129    6    -2.23       .9      6.5    -2.23      1.5      6.5  .047746
GW   130    6    -2.23     -1.5      9.5    -2.23     -1.5      8.9  .047746
GW   131    6    -2.23     -1.5      8.9    -2.23     -1.5      8.3  .047746
GW   132    6    -2.23     -1.5      8.3    -2.23     -1.5      7.7  .047746
GW   133    6    -2.23     -1.5      7.7    -2.23     -1.5      7.1  .047746
GW   134    6    -2.23     -1.5      7.1    -2.23     -1.5      6.5  .047746
GW   135    6    -2.23      -.9      9.5    -2.23      -.9      8.9  .047746
GW   136    6    -2.23      -.9      8.9    -2.23      -.9      8.3  .047746
GW   137    6    -2.23      -.9      8.3    -2.23      -.9      7.7  .047746
GW   138    6    -2.23      -.9      7.7    -2.23      -.9      7.1  .047746
GW   139    6    -2.23      -.9      7.1    -2.23      -.9      6.5  .047746
GW   140    6    -2.23      -.3      9.5    -2.23      -.3      8.9  .047746
GW   141    6    -2.23      -.3      8.9    -2.23      -.3      8.3  .047746
GW   142    6    -2.23      -.3      8.3    -2.23      -.3      7.7  .047746
GW   143    6    -2.23      -.3      7.7    -2.23      -.3      7.1  .047746
GW   144    6    -2.23      -.3      7.1    -2.23      -.3      6.5  .047746
GW   145    6    -2.23       .3      9.5    -2.23       .3      8.9  .047746
GW   146    6    -2.23       .3      8.9    -2.23       .3      8.3  .047746
GW   147    6    -2.23       .3      8.3    -2.23       .3      7.7  .047746
GW   148    6    -2.23       .3      7.7    -2.23       .3      7.1  .047746
GW   149    6    -2.23       .3      7.1    -2.23       .3      6.5  .047746
GW   150    6    -2.23       .9      9.5    -2.23       .9      8.9  .047746
GW   151    6    -2.23       .9      8.9    -2.23       .9      8.3  .047746
GW   152    6    -2.23       .9      8.3    -2.23       .9      7.7  .047746
GW   153    6    -2.23       .9      7.7    -2.23       .9      7.1  .047746
GW   154    6    -2.23       .9      7.1    -2.23       .9      6.5  .047746
GW   155    6    -2.23      1.5      9.5    -2.23      1.5      8.9  .047746
GW   156    6    -2.23      1.5      8.9    -2.23      1.5      8.3  .047746
GW   157    6    -2.23      1.5      8.3    -2.23      1.5      7.7  .047746
GW   158    6    -2.23      1.5      7.7    -2.23      1.5      7.1  .047746
GW   159    6    -2.23      1.5      7.1    -2.23      1.5      6.5  .047746
GE 0
FR 0 0 0 0 144
