CM
CM
CM
CM forw: 86, 90 ; back: 86, 270
CE
SY BASE=7.3
SY GAP = 0.1
SY WD=0.005
SY LD=1.234616
SY Lref=0.948352
SY Dref=0.290072

GW	1	19	GAP/2	0.	0	GAP/2+LD	0.0	0	WD/2
GW	2	19	-GAP/2	0.	0	-GAP/2-LD	0.0	0	WD/2
GW	3	1	-GAP/2	0	0	GAP/2		0	0	WD/2
GW	4	19	-Lref/2	-Dref	0	Lref/2		-Dref	0	WD/2

GM	0	0	0	0	0	0	0	BASE

GE -1
GN 2 0 0 0 11 0.01
EX  0    3    1    0  1.
FR,0,1,0,0,144
PQ -1
PT -1
RP,0,60,121,1003,-88,0,3,3
