CM
CM
CM
CM forw: 86, 88 ; back: 86, 268
CE
SY BASE=7.3

SY W0 = 0.005

SY hL=0.3
SY hL0=0.246574
SY hL1=0.115728
SY H=0.046024

SY lf = 0.01

GW	1	5	lf	0	0	hL0	0	0	W0/2
GW	2	1	hL0	0	0	hL0	0	-H	W0/2
GW	3	3	hL0	0	-H	hL1	0	-H	W0/2
GW	4	1	hL1	0	-H	hL1	0	-2*H	W0/2
GW	5	5	hL1	0	-2*H	hL	0	-2*H	W0/2
GX	10	100


GW	100	9	-lf	0	0	lf	0	0	W0/2

GM	0	0	0	0	0	0	0	BASE

GE -1
GN 2 0 0 0 11 0.01
EX	0	100	5	0	1.
FR,0,1,0,0,144.2
PQ -1
PT -1
